/*---------------------------------------------------------------------------*\
  =========                 |
  \\      /  F ield         | OpenFOAM: The Open Source CFD Toolbox
   \\    /   O peration     | Website:  https://openfoam.org
    \\  /    A nd           | Version:  6
     \\/     M anipulation  |
\*---------------------------------------------------------------------------*/
Build  : 6-fa1285188035
Exec   : interFoam -case /home/katayamata/development/OCAE2019講習会/OpenFOAMandBaysianOpt_Notebooks/damBreak.opt
Date   : Dec 13 2019
Time   : 01:06:19
Host   : "DESKTOP-48PH3FB"
PID    : 31736
I/O    : uncollated
Case   : /home/katayamata/development/OCAE2019講習会/OpenFOAMandBaysianOpt_Notebooks/damBreak.opt
nProcs : 1
sigFpe : Enabling floating point exception trapping (FOAM_SIGFPE).
fileModificationChecking : Monitoring run-time modified files using timeStampMaster (fileModificationSkew 10)
allowSystemOperations : Allowing user-supplied system call operations

// * * * * * * * * * * * * * * * * * * * * * * * * * * * * * * * * * * * * * //
Create time

Create mesh for time = 0


PIMPLE: No convergence criteria found


PIMPLE: Operating solver in PISO mode

Reading field p_rgh

Reading field U

Reading/calculating face flux field phi

Reading transportProperties

Selecting incompressible transport model Newtonian
Selecting incompressible transport model Newtonian
Selecting turbulence model type laminar
Selecting laminar stress model Stokes

Reading g

Reading hRef
Calculating field g.h

No MRF models present

No finite volume options present
DICPCG:  Solving for pcorr, Initial residual = 0, Final residual = 0, No Iterations 0
time step continuity errors : sum local = 0, global = 0, cumulative = 0
Courant Number mean: 0 max: 0

Starting time loop

--> FOAM Warning :
    From function void Foam::particle::locate(const vector&, const vector*, Foam::label, bool, Foam::string)
    in file particle/particle.C at line 493
    "Particle initialised with a location outside of the mesh."
Reading set description:
    line

Courant Number mean: 0 max: 0
Interface Courant Number mean: 0 max: 0
deltaT = 0.0011976
Time = 0.0011976

smoothSolver:  Solving for alpha.water, Initial residual = 0, Final residual = 0, No Iterations 0
Phase-1 volume fraction = 0.123583  Min(alpha.water) = 0  Max(alpha.water) = 1
MULES: Correcting alpha.water
MULES: Correcting alpha.water
Phase-1 volume fraction = 0.123583  Min(alpha.water) = 0  Max(alpha.water) = 1
DICPCG:  Solving for p_rgh, Initial residual = 1, Final residual = 0.00313017, No Iterations 1
time step continuity errors : sum local = 0.00089081, global = -9.46659e-13, cumulative = -9.46659e-13
DICPCG:  Solving for p_rgh, Initial residual = 0.00147003, Final residual = 4.05218e-05, No Iterations 14
time step continuity errors : sum local = 2.45594e-05, global = -9.86123e-06, cumulative = -9.86123e-06
DICPCG:  Solving for p_rgh, Initial residual = 3.37813e-05, Final residual = 8.73268e-08, No Iterations 48
time step continuity errors : sum local = 6.3996e-08, global = 8.68222e-09, cumulative = -9.85255e-06
ExecutionTime = 0.07 s  ClockTime = 0 s

Courant Number mean: 0.00125061 max: 0.116087
Interface Courant Number mean: 0 max: 0
deltaT = 0.00143454
Time = 0.00263215

smoothSolver:  Solving for alpha.water, Initial residual = 0.00029798, Final residual = 3.28061e-12, No Iterations 2
Phase-1 volume fraction = 0.123583  Min(alpha.water) = 0  Max(alpha.water) = 1
MULES: Correcting alpha.water
MULES: Correcting alpha.water
Phase-1 volume fraction = 0.123583  Min(alpha.water) = -1.97856e-13  Max(alpha.water) = 1
DICPCG:  Solving for p_rgh, Initial residual = 0.00324715, Final residual = 9.77183e-05, No Iterations 2
time step continuity errors : sum local = 8.65344e-05, global = 2.69566e-08, cumulative = -9.82559e-06
DICPCG:  Solving for p_rgh, Initial residual = 0.000219291, Final residual = 9.06784e-06, No Iterations 34
time step continuity errors : sum local = 8.03618e-06, global = 3.87344e-07, cumulative = -9.43825e-06
DICPCG:  Solving for p_rgh, Initial residual = 3.33666e-05, Final residual = 9.84323e-08, No Iterations 44
time step continuity errors : sum local = 8.71863e-08, global = 5.33108e-09, cumulative = -9.43292e-06
ExecutionTime = 0.09 s  ClockTime = 0 s

Courant Number mean: 0.00204409 max: 0.0799849
Interface Courant Number mean: 7.28664e-05 max: 0.0799849
deltaT = 0.00172021
Time = 0.00435235

smoothSolver:  Solving for alpha.water, Initial residual = 0.000242731, Final residual = 6.15933e-12, No Iterations 2
Phase-1 volume fraction = 0.123583  Min(alpha.water) = 0  Max(alpha.water) = 1
MULES: Correcting alpha.water
MULES: Correcting alpha.water
Phase-1 volume fraction = 0.123583  Min(alpha.water) = -1.71796e-11  Max(alpha.water) = 1
DICPCG:  Solving for p_rgh, Initial residual = 0.0031727, Final residual = 6.02746e-05, No Iterations 2
time step continuity errors : sum local = 6.76659e-05, global = 1.66682e-09, cumulative = -9.43125e-06
DICPCG:  Solving for p_rgh, Initial residual = 6.697e-05, Final residual = 3.26218e-06, No Iterations 32
time step continuity errors : sum local = 3.66107e-06, global = -4.4775e-07, cumulative = -9.879e-06
DICPCG:  Solving for p_rgh, Initial residual = 4.60134e-06, Final residual = 7.82418e-08, No Iterations 37
time step continuity errors : sum local = 8.78362e-08, global = 5.79287e-10, cumulative = -9.87842e-06
ExecutionTime = 0.11 s  ClockTime = 0 s

Courant Number mean: 0.00359502 max: 0.0867996
Interface Courant Number mean: 0.000104635 max: 0.0867996
deltaT = 0.00206066
Time = 0.00641302

smoothSolver:  Solving for alpha.water, Initial residual = 0.000321562, Final residual = 1.18675e-11, No Iterations 2
Phase-1 volume fraction = 0.123583  Min(alpha.water) = 0  Max(alpha.water) = 1
MULES: Correcting alpha.water
MULES: Correcting alpha.water
Phase-1 volume fraction = 0.123583  Min(alpha.water) = -6.97837e-10  Max(alpha.water) = 1
DICPCG:  Solving for p_rgh, Initial residual = 0.00433691, Final residual = 0.000214331, No Iterations 1
time step continuity errors : sum local = 0.000311086, global = 1.35028e-09, cumulative = -9.87707e-06
DICPCG:  Solving for p_rgh, Initial residual = 0.000218347, Final residual = 1.08836e-05, No Iterations 7
time step continuity errors : sum local = 1.57764e-05, global = -5.67631e-08, cumulative = -9.93383e-06
DICPCG:  Solving for p_rgh, Initial residual = 1.19304e-05, Final residual = 8.83136e-08, No Iterations 43
time step continuity errors : sum local = 1.28021e-07, global = 5.10891e-09, cumulative = -9.92873e-06
ExecutionTime = 0.13 s  ClockTime = 0 s

Courant Number mean: 0.0059964 max: 0.0983707
Interface Courant Number mean: 0.000251808 max: 0.0983707
deltaT = 0.00245992
Time = 0.00887294

smoothSolver:  Solving for alpha.water, Initial residual = 0.000447307, Final residual = 1.67839e-11, No Iterations 2
Phase-1 volume fraction = 0.123583  Min(alpha.water) = 0  Max(alpha.water) = 1
MULES: Correcting alpha.water
MULES: Correcting alpha.water
Phase-1 volume fraction = 0.123583  Min(alpha.water) = -1.0912e-08  Max(alpha.water) = 1
DICPCG:  Solving for p_rgh, Initial residual = 0.00622442, Final residual = 0.000231536, No Iterations 1
time step continuity errors : sum local = 0.000444696, global = 3.03816e-08, cumulative = -9.89834e-06
DICPCG:  Solving for p_rgh, Initial residual = 0.000234479, Final residual = 1.05808e-05, No Iterations 9
time step continuity errors : sum local = 2.02674e-05, global = -3.80039e-07, cumulative = -1.02784e-05
DICPCG:  Solving for p_rgh, Initial residual = 1.2456e-05, Final residual = 8.86471e-08, No Iterations 41
time step continuity errors : sum local = 1.69856e-07, global = 1.34834e-08, cumulative = -1.02649e-05
ExecutionTime = 0.13 s  ClockTime = 0 s

Courant Number mean: 0.00958227 max: 0.113862
Interface Courant Number mean: 0.000415979 max: 0.113861
deltaT = 0.0029408
Time = 0.0118137

smoothSolver:  Solving for alpha.water, Initial residual = 0.000637731, Final residual = 3.50568e-11, No Iterations 2
Phase-1 volume fraction = 0.123583  Min(alpha.water) = 0  Max(alpha.water) = 1
MULES: Correcting alpha.water
MULES: Correcting alpha.water
Phase-1 volume fraction = 0.123583  Min(alpha.water) = -1.15194e-07  Max(alpha.water) = 1
DICPCG:  Solving for p_rgh, Initial residual = 0.00927549, Final residual = 0.000236472, No Iterations 1
time step continuity errors : sum local = 0.000615507, global = 6.15248e-08, cumulative = -1.02034e-05
DICPCG:  Solving for p_rgh, Initial residual = 0.000239505, Final residual = 1.04269e-05, No Iterations 10
time step continuity errors : sum local = 2.70086e-05, global = -6.76954e-07, cumulative = -1.08803e-05
DICPCG:  Solving for p_rgh, Initial residual = 1.40565e-05, Final residual = 8.92175e-08, No Iterations 41
time step continuity errors : sum local = 2.31267e-07, global = 8.97148e-09, cumulative = -1.08714e-05
ExecutionTime = 0.14 s  ClockTime = 0 s

Courant Number mean: 0.0149148 max: 0.18083
Interface Courant Number mean: 0.000668295 max: 0.152585
deltaT = 0.00352897
Time = 0.0153427

smoothSolver:  Solving for alpha.water, Initial residual = 0.000922234, Final residual = 1.0707e-10, No Iterations 2
Phase-1 volume fraction = 0.123583  Min(alpha.water) = 0  Max(alpha.water) = 1
MULES: Correcting alpha.water
MULES: Correcting alpha.water
Phase-1 volume fraction = 0.123583  Min(alpha.water) = -1.055e-06  Max(alpha.water) = 1
DICPCG:  Solving for p_rgh, Initial residual = 0.013829, Final residual = 0.00023441, No Iterations 1
time step continuity errors : sum local = 0.000838647, global = 7.41989e-08, cumulative = -1.07972e-05
DICPCG:  Solving for p_rgh, Initial residual = 0.000238923, Final residual = 1.13088e-05, No Iterations 10
time step continuity errors : sum local = 4.01307e-05, global = -1.96002e-08, cumulative = -1.08168e-05
DICPCG:  Solving for p_rgh, Initial residual = 1.73699e-05, Final residual = 9.36256e-08, No Iterations 39
time step continuity errors : sum local = 3.32668e-07, global = 1.27981e-08, cumulative = -1.0804e-05
ExecutionTime = 0.16 s  ClockTime = 0 s

Courant Number mean: 0.0228598 max: 0.271114
Interface Courant Number mean: 0.00117545 max: 0.232272
deltaT = 0.004227
Time = 0.0195697

smoothSolver:  Solving for alpha.water, Initial residual = 0.00134125, Final residual = 3.87519e-10, No Iterations 2
Phase-1 volume fraction = 0.123583  Min(alpha.water) = 0  Max(alpha.water) = 1
MULES: Correcting alpha.water
MULES: Correcting alpha.water
Phase-1 volume fraction = 0.123583  Min(alpha.water) = -3.90169e-08  Max(alpha.water) = 1
DICPCG:  Solving for p_rgh, Initial residual = 0.0207823, Final residual = 0.000273233, No Iterations 1
time step continuity errors : sum local = 0.00133787, global = 1.82367e-07, cumulative = -1.06216e-05
DICPCG:  Solving for p_rgh, Initial residual = 0.000281184, Final residual = 1.34269e-05, No Iterations 10
time step continuity errors : sum local = 6.49011e-05, global = 2.11738e-06, cumulative = -8.50421e-06
DICPCG:  Solving for p_rgh, Initial residual = 2.38639e-05, Final residual = 7.85199e-08, No Iterations 39
time step continuity errors : sum local = 3.80322e-07, global = -4.20586e-09, cumulative = -8.50842e-06
ExecutionTime = 0.18 s  ClockTime = 0 s

Courant Number mean: 0.0344084 max: 0.339549
Interface Courant Number mean: 0.00174931 max: 0.339549
deltaT = 0.0050724
Time = 0.0246421

smoothSolver:  Solving for alpha.water, Initial residual = 0.00194316, Final residual = 1.34907e-09, No Iterations 2
Phase-1 volume fraction = 0.123583  Min(alpha.water) = 0  Max(alpha.water) = 1
MULES: Correcting alpha.water
MULES: Correcting alpha.water
Phase-1 volume fraction = 0.123583  Min(alpha.water) = -1.03937e-06  Max(alpha.water) = 1
DICPCG:  Solving for p_rgh, Initial residual = 0.0309464, Final residual = 0.000333954, No Iterations 1
time step continuity errors : sum local = 0.00222037, global = 2.78161e-07, cumulative = -8.23026e-06
DICPCG:  Solving for p_rgh, Initial residual = 0.000351513, Final residual = 1.68278e-05, No Iterations 10
time step continuity errors : sum local = 0.000109719, global = 7.52881e-06, cumulative = -7.01447e-07
DICPCG:  Solving for p_rgh, Initial residual = 3.65862e-05, Final residual = 9.85489e-08, No Iterations 40
time step continuity errors : sum local = 6.44803e-07, global = -6.44992e-08, cumulative = -7.65946e-07
ExecutionTime = 0.18 s  ClockTime = 0 s

Courant Number mean: 0.0512842 max: 0.478016
Interface Courant Number mean: 0.00271273 max: 0.478016
deltaT = 0.00605416
Time = 0.0306963

smoothSolver:  Solving for alpha.water, Initial residual = 0.00278661, Final residual = 7.37967e-13, No Iterations 3
Phase-1 volume fraction = 0.123583  Min(alpha.water) = 0  Max(alpha.water) = 1
MULES: Correcting alpha.water
MULES: Correcting alpha.water
Phase-1 volume fraction = 0.123583  Min(alpha.water) = -6.96423e-06  Max(alpha.water) = 1
DICPCG:  Solving for p_rgh, Initial residual = 0.0458558, Final residual = 0.000454145, No Iterations 1
time step continuity errors : sum local = 0.00398387, global = 3.81757e-07, cumulative = -3.84189e-07
DICPCG:  Solving for p_rgh, Initial residual = 0.000488373, Final residual = 2.25751e-05, No Iterations 10
time step continuity errors : sum local = 0.000192271, global = 2.08297e-05, cumulative = 2.04455e-05
DICPCG:  Solving for p_rgh, Initial residual = 6.08507e-05, Final residual = 8.31671e-08, No Iterations 46
time step continuity errors : sum local = 7.12379e-07, global = -5.61594e-08, cumulative = 2.03894e-05
ExecutionTime = 0.19 s  ClockTime = 0 s

Courant Number mean: 0.0752905 max: 0.655677
Interface Courant Number mean: 0.00406356 max: 0.655677
deltaT = 0.00696799
Time = 0.0376643

smoothSolver:  Solving for alpha.water, Initial residual = 0.00385504, Final residual = 5.52629e-12, No Iterations 3
Phase-1 volume fraction = 0.123583  Min(alpha.water) = 0  Max(alpha.water) = 1
MULES: Correcting alpha.water
MULES: Correcting alpha.water
Phase-1 volume fraction = 0.123583  Min(alpha.water) = -6.06415e-06  Max(alpha.water) = 1
DICPCG:  Solving for p_rgh, Initial residual = 0.0632628, Final residual = 0.000508317, No Iterations 1
time step continuity errors : sum local = 0.00531835, global = 7.13063e-07, cumulative = 2.11024e-05
DICPCG:  Solving for p_rgh, Initial residual = 0.000582167, Final residual = 2.76362e-05, No Iterations 10
time step continuity errors : sum local = 0.000276233, global = 3.05411e-05, cumulative = 5.16436e-05
DICPCG:  Solving for p_rgh, Initial residual = 8.47162e-05, Final residual = 9.29438e-08, No Iterations 48
time step continuity errors : sum local = 9.38104e-07, global = -2.2574e-09, cumulative = 5.16413e-05
ExecutionTime = 0.23 s  ClockTime = 0 s

Courant Number mean: 0.105061 max: 0.887455
Interface Courant Number mean: 0.00668632 max: 0.887455
deltaT = 0.00770927
Time = 0.0453735

smoothSolver:  Solving for alpha.water, Initial residual = 0.00508126, Final residual = 1.08751e-13, No Iterations 4
Phase-1 volume fraction = 0.123583  Min(alpha.water) = 0  Max(alpha.water) = 1
MULES: Correcting alpha.water
MULES: Correcting alpha.water
Phase-1 volume fraction = 0.123583  Min(alpha.water) = -1.19843e-05  Max(alpha.water) = 1
DICPCG:  Solving for p_rgh, Initial residual = 0.078347, Final residual = 0.000639359, No Iterations 1
time step continuity errors : sum local = 0.007142, global = 1.03872e-06, cumulative = 5.268e-05
DICPCG:  Solving for p_rgh, Initial residual = 0.000759324, Final residual = 3.20117e-05, No Iterations 11
time step continuity errors : sum local = 0.000336129, global = 5.28635e-05, cumulative = 0.000105544
DICPCG:  Solving for p_rgh, Initial residual = 0.000126574, Final residual = 8.2918e-08, No Iterations 48
time step continuity errors : sum local = 8.86057e-07, global = 5.25443e-08, cumulative = 0.000105596
ExecutionTime = 0.24 s  ClockTime = 0 s

Courant Number mean: 0.138183 max: 1.17698
Interface Courant Number mean: 0.0107657 max: 1.17698
deltaT = 0.00644775
Time = 0.0518213

smoothSolver:  Solving for alpha.water, Initial residual = 0.00496044, Final residual = 1.16675e-09, No Iterations 4
Phase-1 volume fraction = 0.123583  Min(alpha.water) = -6.06785e-16  Max(alpha.water) = 1
MULES: Correcting alpha.water
MULES: Correcting alpha.water
Phase-1 volume fraction = 0.123583  Min(alpha.water) = -4.08623e-05  Max(alpha.water) = 1
DICPCG:  Solving for p_rgh, Initial residual = 0.0690167, Final residual = 0.00076631, No Iterations 1
time step continuity errors : sum local = 0.00538753, global = 9.23887e-08, cumulative = 0.000105688
DICPCG:  Solving for p_rgh, Initial residual = 0.000881417, Final residual = 3.50519e-05, No Iterations 11
time step continuity errors : sum local = 0.000233452, global = 5.11968e-05, cumulative = 0.000156885
DICPCG:  Solving for p_rgh, Initial residual = 0.00013263, Final residual = 9.22605e-08, No Iterations 46
time step continuity errors : sum local = 6.27546e-07, global = 2.58558e-10, cumulative = 0.000156886
ExecutionTime = 0.26 s  ClockTime = 0 s

Courant Number mean: 0.130129 max: 1.08185
Interface Courant Number mean: 0.0110817 max: 1.08185
deltaT = 0.00590133
Time = 0.0577226

smoothSolver:  Solving for alpha.water, Initial residual = 0.00510196, Final residual = 1.40452e-09, No Iterations 4
Phase-1 volume fraction = 0.123583  Min(alpha.water) = -5.66861e-17  Max(alpha.water) = 1
MULES: Correcting alpha.water
MULES: Correcting alpha.water
Phase-1 volume fraction = 0.123583  Min(alpha.water) = -2.53781e-05  Max(alpha.water) = 1
DICPCG:  Solving for p_rgh, Initial residual = 0.0582671, Final residual = 0.00103223, No Iterations 1
time step continuity errors : sum local = 0.00554316, global = -3.49058e-07, cumulative = 0.000156536
DICPCG:  Solving for p_rgh, Initial residual = 0.00116228, Final residual = 4.45792e-05, No Iterations 11
time step continuity errors : sum local = 0.000229203, global = 5.22699e-05, cumulative = 0.000208806
DICPCG:  Solving for p_rgh, Initial residual = 0.000166807, Final residual = 9.27527e-08, No Iterations 49
time step continuity errors : sum local = 4.88011e-07, global = -3.37942e-08, cumulative = 0.000208773
ExecutionTime = 0.27 s  ClockTime = 0 s

Courant Number mean: 0.131257 max: 1.04669
Interface Courant Number mean: 0.0111671 max: 1.04669
deltaT = 0.0056111
Time = 0.0633337

smoothSolver:  Solving for alpha.water, Initial residual = 0.00534715, Final residual = 2.79558e-09, No Iterations 4
Phase-1 volume fraction = 0.123583  Min(alpha.water) = -4.24414e-17  Max(alpha.water) = 1
MULES: Correcting alpha.water
MULES: Correcting alpha.water
Phase-1 volume fraction = 0.123583  Min(alpha.water) = -4.27791e-05  Max(alpha.water) = 1
DICPCG:  Solving for p_rgh, Initial residual = 0.0490111, Final residual = 0.00130278, No Iterations 1
time step continuity errors : sum local = 0.00595679, global = -4.53586e-07, cumulative = 0.000208319
DICPCG:  Solving for p_rgh, Initial residual = 0.00144992, Final residual = 6.08874e-05, No Iterations 11
time step continuity errors : sum local = 0.000268779, global = 6.2005e-05, cumulative = 0.000270324
DICPCG:  Solving for p_rgh, Initial residual = 0.000194109, Final residual = 9.67459e-08, No Iterations 50
time step continuity errors : sum local = 4.3791e-07, global = -5.80165e-08, cumulative = 0.000270266
ExecutionTime = 0.27 s  ClockTime = 0 s

Courant Number mean: 0.135593 max: 1.19236
Interface Courant Number mean: 0.0118852 max: 1.0414
deltaT = 0.00467592
Time = 0.0680097

smoothSolver:  Solving for alpha.water, Initial residual = 0.00479612, Final residual = 1.27184e-09, No Iterations 4
Phase-1 volume fraction = 0.123583  Min(alpha.water) = -3.2846e-17  Max(alpha.water) = 1
MULES: Correcting alpha.water
MULES: Correcting alpha.water
Phase-1 volume fraction = 0.123583  Min(alpha.water) = -1.5293e-05  Max(alpha.water) = 1
DICPCG:  Solving for p_rgh, Initial residual = 0.0338667, Final residual = 0.00133873, No Iterations 1
time step continuity errors : sum local = 0.00424451, global = -6.87032e-07, cumulative = 0.000269579
DICPCG:  Solving for p_rgh, Initial residual = 0.00148568, Final residual = 6.2895e-05, No Iterations 11
time step continuity errors : sum local = 0.000195858, global = 4.60049e-05, cumulative = 0.000315584
DICPCG:  Solving for p_rgh, Initial residual = 0.00018176, Final residual = 8.0579e-08, No Iterations 50
time step continuity errors : sum local = 2.56474e-07, global = -3.51273e-08, cumulative = 0.000315549
ExecutionTime = 0.29 s  ClockTime = 0 s

Courant Number mean: 0.120264 max: 1.18051
Interface Courant Number mean: 0.0108695 max: 0.926344
deltaT = 0.00395227
Time = 0.0719619

smoothSolver:  Solving for alpha.water, Initial residual = 0.00431267, Final residual = 5.07807e-10, No Iterations 4
Phase-1 volume fraction = 0.123583  Min(alpha.water) = -4.55009e-15  Max(alpha.water) = 1
MULES: Correcting alpha.water
MULES: Correcting alpha.water
Phase-1 volume fraction = 0.123583  Min(alpha.water) = -1.76743e-05  Max(alpha.water) = 1
DICPCG:  Solving for p_rgh, Initial residual = 0.0359001, Final residual = 0.000773338, No Iterations 1
time step continuity errors : sum local = 0.00199918, global = -4.72483e-07, cumulative = 0.000315076
DICPCG:  Solving for p_rgh, Initial residual = 0.000860681, Final residual = 4.27907e-05, No Iterations 11
time step continuity errors : sum local = 0.000107714, global = 2.29666e-05, cumulative = 0.000338043
DICPCG:  Solving for p_rgh, Initial residual = 0.00011616, Final residual = 7.66711e-08, No Iterations 49
time step continuity errors : sum local = 1.96319e-07, global = -2.08527e-08, cumulative = 0.000338022
ExecutionTime = 0.3 s  ClockTime = 0 s

Courant Number mean: 0.106693 max: 1.16358
Interface Courant Number mean: 0.00934322 max: 0.812052
deltaT = 0.00338184
Time = 0.0753438

smoothSolver:  Solving for alpha.water, Initial residual = 0.00387939, Final residual = 2.03465e-10, No Iterations 4
Phase-1 volume fraction = 0.123583  Min(alpha.water) = -1.08557e-13  Max(alpha.water) = 1
MULES: Correcting alpha.water
MULES: Correcting alpha.water
Phase-1 volume fraction = 0.123583  Min(alpha.water) = -1.18152e-05  Max(alpha.water) = 1
DICPCG:  Solving for p_rgh, Initial residual = 0.0490467, Final residual = 0.000555949, No Iterations 1
time step continuity errors : sum local = 0.00118664, global = -2.1538e-07, cumulative = 0.000337807
DICPCG:  Solving for p_rgh, Initial residual = 0.000626972, Final residual = 2.94109e-05, No Iterations 11
time step continuity errors : sum local = 6.014e-05, global = 1.07442e-05, cumulative = 0.000348551
DICPCG:  Solving for p_rgh, Initial residual = 8.20338e-05, Final residual = 9.07248e-08, No Iterations 33
time step continuity errors : sum local = 1.88103e-07, global = 9.29353e-08, cumulative = 0.000348644
ExecutionTime = 0.32 s  ClockTime = 0 s

Courant Number mean: 0.0949273 max: 1.14718
Interface Courant Number mean: 0.00831307 max: 0.702685
deltaT = 0.00292483
Time = 0.0782686

smoothSolver:  Solving for alpha.water, Initial residual = 0.00350724, Final residual = 8.7262e-09, No Iterations 3
Phase-1 volume fraction = 0.123583  Min(alpha.water) = -6.7614e-14  Max(alpha.water) = 1
MULES: Correcting alpha.water
MULES: Correcting alpha.water
Phase-1 volume fraction = 0.123583  Min(alpha.water) = -9.80252e-06  Max(alpha.water) = 1
DICPCG:  Solving for p_rgh, Initial residual = 0.0397436, Final residual = 0.000654617, No Iterations 1
time step continuity errors : sum local = 0.000985362, global = 7.9667e-08, cumulative = 0.000348723
DICPCG:  Solving for p_rgh, Initial residual = 0.000722182, Final residual = 3.31879e-05, No Iterations 11
time step continuity errors : sum local = 4.8353e-05, global = 8.55127e-06, cumulative = 0.000357275
DICPCG:  Solving for p_rgh, Initial residual = 8.39634e-05, Final residual = 8.443e-08, No Iterations 47
time step continuity errors : sum local = 1.24618e-07, global = -1.42154e-08, cumulative = 0.000357261
ExecutionTime = 0.32 s  ClockTime = 0 s

Courant Number mean: 0.0848193 max: 1.12626
Interface Courant Number mean: 0.00743253 max: 0.615944
deltaT = 0.00259461
Time = 0.0808632

smoothSolver:  Solving for alpha.water, Initial residual = 0.00322862, Final residual = 4.57527e-09, No Iterations 3
Phase-1 volume fraction = 0.123583  Min(alpha.water) = -3.73723e-14  Max(alpha.water) = 1
MULES: Correcting alpha.water
MULES: Correcting alpha.water
Phase-1 volume fraction = 0.123583  Min(alpha.water) = -2.13746e-05  Max(alpha.water) = 1
DICPCG:  Solving for p_rgh, Initial residual = 0.0336977, Final residual = 0.00081738, No Iterations 1
time step continuity errors : sum local = 0.000936012, global = -1.43927e-07, cumulative = 0.000357117
DICPCG:  Solving for p_rgh, Initial residual = 0.0008891, Final residual = 4.18072e-05, No Iterations 11
time step continuity errors : sum local = 4.65923e-05, global = 7.76366e-06, cumulative = 0.00036488
DICPCG:  Solving for p_rgh, Initial residual = 9.32155e-05, Final residual = 8.96872e-08, No Iterations 46
time step continuity errors : sum local = 1.01131e-07, global = -7.79004e-09, cumulative = 0.000364872
ExecutionTime = 0.33 s  ClockTime = 0 s

Courant Number mean: 0.0774465 max: 1.11881
Interface Courant Number mean: 0.0065014 max: 0.568052
deltaT = 0.00231259
Time = 0.0831758

smoothSolver:  Solving for alpha.water, Initial residual = 0.00297986, Final residual = 2.37302e-09, No Iterations 3
Phase-1 volume fraction = 0.123583  Min(alpha.water) = -1.47785e-14  Max(alpha.water) = 1
MULES: Correcting alpha.water
MULES: Correcting alpha.water
Phase-1 volume fraction = 0.123583  Min(alpha.water) = -1.10112e-05  Max(alpha.water) = 1
DICPCG:  Solving for p_rgh, Initial residual = 0.0276421, Final residual = 0.000851888, No Iterations 1
time step continuity errors : sum local = 0.000750186, global = -5.1497e-08, cumulative = 0.000364821
DICPCG:  Solving for p_rgh, Initial residual = 0.000922807, Final residual = 4.22349e-05, No Iterations 11
time step continuity errors : sum local = 3.64531e-05, global = 6.89034e-06, cumulative = 0.000371711
DICPCG:  Solving for p_rgh, Initial residual = 8.93377e-05, Final residual = 8.86643e-08, No Iterations 47
time step continuity errors : sum local = 7.73636e-08, global = -4.94301e-09, cumulative = 0.000371706
ExecutionTime = 0.38 s  ClockTime = 0 s

Courant Number mean: 0.07063 max: 1.09546
Interface Courant Number mean: 0.00599211 max: 0.583443
deltaT = 0.00209817
Time = 0.085274

smoothSolver:  Solving for alpha.water, Initial residual = 0.00276591, Final residual = 1.51977e-09, No Iterations 3
Phase-1 volume fraction = 0.123583  Min(alpha.water) = -1.14786e-14  Max(alpha.water) = 1
MULES: Correcting alpha.water
MULES: Correcting alpha.water
Phase-1 volume fraction = 0.123583  Min(alpha.water) = -8.89019e-06  Max(alpha.water) = 1
DICPCG:  Solving for p_rgh, Initial residual = 0.0234672, Final residual = 0.000739415, No Iterations 1
time step continuity errors : sum local = 0.000540772, global = -5.83908e-08, cumulative = 0.000371648
DICPCG:  Solving for p_rgh, Initial residual = 0.000801517, Final residual = 3.20469e-05, No Iterations 12
time step continuity errors : sum local = 2.30538e-05, global = 4.16333e-06, cumulative = 0.000375811
DICPCG:  Solving for p_rgh, Initial residual = 7.61013e-05, Final residual = 9.34966e-08, No Iterations 46
time step continuity errors : sum local = 6.79238e-08, global = -6.7526e-09, cumulative = 0.000375805
ExecutionTime = 0.4 s  ClockTime = 0 s

Courant Number mean: 0.065434 max: 1.07035
Interface Courant Number mean: 0.00547538 max: 0.543809
deltaT = 0.00195482
Time = 0.0872288

smoothSolver:  Solving for alpha.water, Initial residual = 0.00262771, Final residual = 1.09232e-09, No Iterations 3
Phase-1 volume fraction = 0.123583  Min(alpha.water) = -9.05053e-15  Max(alpha.water) = 1
MULES: Correcting alpha.water
MULES: Correcting alpha.water
Phase-1 volume fraction = 0.123583  Min(alpha.water) = -6.11938e-08  Max(alpha.water) = 1
DICPCG:  Solving for p_rgh, Initial residual = 0.0235418, Final residual = 0.000734159, No Iterations 1
time step continuity errors : sum local = 0.000481183, global = -2.80656e-08, cumulative = 0.000375776
DICPCG:  Solving for p_rgh, Initial residual = 0.000795237, Final residual = 3.89689e-05, No Iterations 11
time step continuity errors : sum local = 2.51363e-05, global = 4.0004e-06, cumulative = 0.000379777
DICPCG:  Solving for p_rgh, Initial residual = 7.83286e-05, Final residual = 9.01363e-08, No Iterations 43
time step continuity errors : sum local = 5.86434e-08, global = -6.64569e-10, cumulative = 0.000379776
ExecutionTime = 0.4 s  ClockTime = 0 s

Courant Number mean: 0.0621098 max: 1.05312
Interface Courant Number mean: 0.00493786 max: 0.514928
deltaT = 0.00185072
Time = 0.0890795

smoothSolver:  Solving for alpha.water, Initial residual = 0.00254858, Final residual = 8.18622e-10, No Iterations 3
Phase-1 volume fraction = 0.123583  Min(alpha.water) = -7.46686e-15  Max(alpha.water) = 1
MULES: Correcting alpha.water
MULES: Correcting alpha.water
Phase-1 volume fraction = 0.123583  Min(alpha.water) = -1.26114e-12  Max(alpha.water) = 1
DICPCG:  Solving for p_rgh, Initial residual = 0.0236603, Final residual = 0.000638251, No Iterations 1
time step continuity errors : sum local = 0.000394707, global = -2.18712e-08, cumulative = 0.000379754
DICPCG:  Solving for p_rgh, Initial residual = 0.000689559, Final residual = 2.68656e-05, No Iterations 12
time step continuity errors : sum local = 1.63632e-05, global = 3.14684e-06, cumulative = 0.000382901
DICPCG:  Solving for p_rgh, Initial residual = 6.20263e-05, Final residual = 9.81613e-08, No Iterations 45
time step continuity errors : sum local = 6.02436e-08, global = -2.51765e-09, cumulative = 0.000382899
ExecutionTime = 0.41 s  ClockTime = 0 s

Courant Number mean: 0.0598219 max: 1.03444
Interface Courant Number mean: 0.00487245 max: 0.900179
deltaT = 0.0017869
Time = 0.0908664

smoothSolver:  Solving for alpha.water, Initial residual = 0.00251276, Final residual = 6.86709e-10, No Iterations 3
Phase-1 volume fraction = 0.123583  Min(alpha.water) = -6.46434e-15  Max(alpha.water) = 1
MULES: Correcting alpha.water
MULES: Correcting alpha.water
Phase-1 volume fraction = 0.123583  Min(alpha.water) = -1.06818e-08  Max(alpha.water) = 1
DICPCG:  Solving for p_rgh, Initial residual = 0.0275531, Final residual = 0.000403534, No Iterations 1
time step continuity errors : sum local = 0.000257417, global = -1.86896e-08, cumulative = 0.00038288
DICPCG:  Solving for p_rgh, Initial residual = 0.000441508, Final residual = 1.99692e-05, No Iterations 12
time step continuity errors : sum local = 1.24445e-05, global = 1.81603e-06, cumulative = 0.000384696
DICPCG:  Solving for p_rgh, Initial residual = 4.66028e-05, Final residual = 9.10653e-08, No Iterations 45
time step continuity errors : sum local = 5.7135e-08, global = -4.03221e-09, cumulative = 0.000384692
ExecutionTime = 0.43 s  ClockTime = 0 s

Courant Number mean: 0.0587202 max: 1.02266
Interface Courant Number mean: 0.00505533 max: 0.867635
deltaT = 0.00174652
Time = 0.0926129

smoothSolver:  Solving for alpha.water, Initial residual = 0.00250638, Final residual = 6.32323e-10, No Iterations 3
Phase-1 volume fraction = 0.123583  Min(alpha.water) = -5.78102e-15  Max(alpha.water) = 1
MULES: Correcting alpha.water
MULES: Correcting alpha.water
Phase-1 volume fraction = 0.123583  Min(alpha.water) = -4.22189e-09  Max(alpha.water) = 1
DICPCG:  Solving for p_rgh, Initial residual = 0.0303004, Final residual = 0.000406378, No Iterations 1
time step continuity errors : sum local = 0.000252717, global = -9.52839e-09, cumulative = 0.000384682
DICPCG:  Solving for p_rgh, Initial residual = 0.000447462, Final residual = 2.19435e-05, No Iterations 12
time step continuity errors : sum local = 1.32908e-05, global = 1.46099e-06, cumulative = 0.000386143
DICPCG:  Solving for p_rgh, Initial residual = 5.01196e-05, Final residual = 9.6765e-08, No Iterations 45
time step continuity errors : sum local = 5.90173e-08, global = -4.18821e-09, cumulative = 0.000386139
ExecutionTime = 0.44 s  ClockTime = 0 s

Courant Number mean: 0.0583413 max: 1.00786
Interface Courant Number mean: 0.00534085 max: 0.930287
deltaT = 0.00172689
Time = 0.0943398

smoothSolver:  Solving for alpha.water, Initial residual = 0.00254052, Final residual = 6.44658e-10, No Iterations 3
Phase-1 volume fraction = 0.123583  Min(alpha.water) = -5.17242e-15  Max(alpha.water) = 1
MULES: Correcting alpha.water
MULES: Correcting alpha.water
Phase-1 volume fraction = 0.123583  Min(alpha.water) = -1.62468e-09  Max(alpha.water) = 1
DICPCG:  Solving for p_rgh, Initial residual = 0.0284955, Final residual = 0.000491579, No Iterations 1
time step continuity errors : sum local = 0.00028397, global = -4.24e-09, cumulative = 0.000386135
DICPCG:  Solving for p_rgh, Initial residual = 0.000539985, Final residual = 2.60936e-05, No Iterations 12
time step continuity errors : sum local = 1.47191e-05, global = 1.63981e-06, cumulative = 0.000387775
DICPCG:  Solving for p_rgh, Initial residual = 6.15868e-05, Final residual = 9.0876e-08, No Iterations 46
time step continuity errors : sum local = 5.16315e-08, global = -3.4548e-09, cumulative = 0.000387771
ExecutionTime = 0.46 s  ClockTime = 0 s

Courant Number mean: 0.0586614 max: 0.982786
Interface Courant Number mean: 0.00505323 max: 0.982786
deltaT = 0.00175667
Time = 0.0960965

smoothSolver:  Solving for alpha.water, Initial residual = 0.00264464, Final residual = 7.86288e-10, No Iterations 3
Phase-1 volume fraction = 0.123583  Min(alpha.water) = -4.60302e-15  Max(alpha.water) = 1
MULES: Correcting alpha.water
MULES: Correcting alpha.water
Phase-1 volume fraction = 0.123583  Min(alpha.water) = -1.10939e-09  Max(alpha.water) = 1
DICPCG:  Solving for p_rgh, Initial residual = 0.0280171, Final residual = 0.000613514, No Iterations 1
time step continuity errors : sum local = 0.000352796, global = -1.0401e-09, cumulative = 0.00038777
DICPCG:  Solving for p_rgh, Initial residual = 0.000674265, Final residual = 2.70003e-05, No Iterations 12
time step continuity errors : sum local = 1.51628e-05, global = 2.44982e-06, cumulative = 0.00039022
DICPCG:  Solving for p_rgh, Initial residual = 6.51268e-05, Final residual = 9.50775e-08, No Iterations 46
time step continuity errors : sum local = 5.38181e-08, global = -2.5066e-09, cumulative = 0.000390218
ExecutionTime = 0.48 s  ClockTime = 0 s

Courant Number mean: 0.0607166 max: 0.983111
Interface Courant Number mean: 0.00529393 max: 0.983111
deltaT = 0.00177721
Time = 0.0978737

smoothSolver:  Solving for alpha.water, Initial residual = 0.00272626, Final residual = 9.27169e-10, No Iterations 3
Phase-1 volume fraction = 0.123583  Min(alpha.water) = -4.05638e-15  Max(alpha.water) = 1
MULES: Correcting alpha.water
MULES: Correcting alpha.water
Phase-1 volume fraction = 0.123583  Min(alpha.water) = -5.55738e-07  Max(alpha.water) = 1
DICPCG:  Solving for p_rgh, Initial residual = 0.0266691, Final residual = 0.000723525, No Iterations 1
time step continuity errors : sum local = 0.000408183, global = -6.93191e-09, cumulative = 0.000390211
DICPCG:  Solving for p_rgh, Initial residual = 0.000799482, Final residual = 3.28592e-05, No Iterations 12
time step continuity errors : sum local = 1.8137e-05, global = 3.25462e-06, cumulative = 0.000393465
DICPCG:  Solving for p_rgh, Initial residual = 7.91013e-05, Final residual = 8.71628e-08, No Iterations 46
time step continuity errors : sum local = 4.85052e-08, global = -2.93908e-09, cumulative = 0.000393462
ExecutionTime = 0.48 s  ClockTime = 0 s

Courant Number mean: 0.0624431 max: 0.95941
Interface Courant Number mean: 0.00562303 max: 0.95941
deltaT = 0.00184223
Time = 0.0997159

smoothSolver:  Solving for alpha.water, Initial residual = 0.00286189, Final residual = 1.25719e-09, No Iterations 3
Phase-1 volume fraction = 0.123583  Min(alpha.water) = -3.72802e-15  Max(alpha.water) = 1
MULES: Correcting alpha.water
MULES: Correcting alpha.water
Phase-1 volume fraction = 0.123583  Min(alpha.water) = -5.32744e-10  Max(alpha.water) = 1
DICPCG:  Solving for p_rgh, Initial residual = 0.0245062, Final residual = 0.000780639, No Iterations 1
time step continuity errors : sum local = 0.000458953, global = -2.15564e-08, cumulative = 0.000393441
DICPCG:  Solving for p_rgh, Initial residual = 0.000864544, Final residual = 2.96757e-05, No Iterations 12
time step continuity errors : sum local = 1.71158e-05, global = 3.83411e-06, cumulative = 0.000397275
DICPCG:  Solving for p_rgh, Initial residual = 8.35444e-05, Final residual = 9.88023e-08, No Iterations 46
time step continuity errors : sum local = 5.74739e-08, global = -3.76861e-09, cumulative = 0.000397271
ExecutionTime = 0.49 s  ClockTime = 0 s

Courant Number mean: 0.0657564 max: 1.02393
Interface Courant Number mean: 0.00564804 max: 1.02393
deltaT = 0.00179811
Time = 0.101514

smoothSolver:  Solving for alpha.water, Initial residual = 0.00285271, Final residual = 1.15003e-09, No Iterations 3
Phase-1 volume fraction = 0.123583  Min(alpha.water) = -3.48858e-15  Max(alpha.water) = 1
MULES: Correcting alpha.water
MULES: Correcting alpha.water
Phase-1 volume fraction = 0.123583  Min(alpha.water) = -4.38449e-08  Max(alpha.water) = 1
DICPCG:  Solving for p_rgh, Initial residual = 0.0241941, Final residual = 0.000643903, No Iterations 1
time step continuity errors : sum local = 0.000365116, global = -3.22373e-08, cumulative = 0.000397239
DICPCG:  Solving for p_rgh, Initial residual = 0.000720987, Final residual = 2.97727e-05, No Iterations 12
time step continuity errors : sum local = 1.6554e-05, global = 2.7033e-06, cumulative = 0.000399942
DICPCG:  Solving for p_rgh, Initial residual = 7.6387e-05, Final residual = 7.57556e-08, No Iterations 47
time step continuity errors : sum local = 4.24804e-08, global = -2.43656e-09, cumulative = 0.00039994
ExecutionTime = 0.51 s  ClockTime = 0 s

Courant Number mean: 0.0651401 max: 1.05475
Interface Courant Number mean: 0.00554176 max: 0.942978
deltaT = 0.00169594
Time = 0.10321

smoothSolver:  Solving for alpha.water, Initial residual = 0.0027414, Final residual = 8.5899e-10, No Iterations 3
Phase-1 volume fraction = 0.123583  Min(alpha.water) = -3.2625e-15  Max(alpha.water) = 1
MULES: Correcting alpha.water
MULES: Correcting alpha.water
Phase-1 volume fraction = 0.123583  Min(alpha.water) = -2.02374e-11  Max(alpha.water) = 1
DICPCG:  Solving for p_rgh, Initial residual = 0.0227311, Final residual = 0.000657868, No Iterations 1
time step continuity errors : sum local = 0.000332484, global = -1.64657e-08, cumulative = 0.000399923
DICPCG:  Solving for p_rgh, Initial residual = 0.000744718, Final residual = 3.66369e-05, No Iterations 10
time step continuity errors : sum local = 1.81962e-05, global = 1.73059e-06, cumulative = 0.000401654
DICPCG:  Solving for p_rgh, Initial residual = 7.65109e-05, Final residual = 9.41211e-08, No Iterations 42
time step continuity errors : sum local = 4.70745e-08, global = 7.32895e-10, cumulative = 0.000401655
ExecutionTime = 0.52 s  ClockTime = 0 s

Courant Number mean: 0.0622466 max: 1.05201
Interface Courant Number mean: 0.00520942 max: 0.939754
deltaT = 0.00160427
Time = 0.104814

smoothSolver:  Solving for alpha.water, Initial residual = 0.00264854, Final residual = 6.51653e-10, No Iterations 3
Phase-1 volume fraction = 0.123583  Min(alpha.water) = -3.05206e-15  Max(alpha.water) = 1
MULES: Correcting alpha.water
MULES: Correcting alpha.water
Phase-1 volume fraction = 0.123583  Min(alpha.water) = -3.41226e-10  Max(alpha.water) = 1
DICPCG:  Solving for p_rgh, Initial residual = 0.0232376, Final residual = 0.00062354, No Iterations 1
time step continuity errors : sum local = 0.000291757, global = -1.05694e-08, cumulative = 0.000401644
DICPCG:  Solving for p_rgh, Initial residual = 0.00069993, Final residual = 3.30265e-05, No Iterations 10
time step continuity errors : sum local = 1.5186e-05, global = 1.39918e-06, cumulative = 0.000403043
DICPCG:  Solving for p_rgh, Initial residual = 7.18832e-05, Final residual = 8.59379e-08, No Iterations 42
time step continuity errors : sum local = 3.97788e-08, global = 2.31365e-09, cumulative = 0.000403046
ExecutionTime = 0.54 s  ClockTime = 0 s

Courant Number mean: 0.0595787 max: 1.0493
Interface Courant Number mean: 0.00505786 max: 0.924054
deltaT = 0.00152158
Time = 0.106336

smoothSolver:  Solving for alpha.water, Initial residual = 0.00255742, Final residual = 4.99249e-10, No Iterations 3
Phase-1 volume fraction = 0.123583  Min(alpha.water) = -2.85774e-15  Max(alpha.water) = 1
MULES: Correcting alpha.water
MULES: Correcting alpha.water
Phase-1 volume fraction = 0.123583  Min(alpha.water) = -7.17093e-10  Max(alpha.water) = 1
DICPCG:  Solving for p_rgh, Initial residual = 0.0220461, Final residual = 0.000574348, No Iterations 1
time step continuity errors : sum local = 0.000247978, global = -6.60635e-09, cumulative = 0.000403039
DICPCG:  Solving for p_rgh, Initial residual = 0.000646053, Final residual = 3.22719e-05, No Iterations 11
time step continuity errors : sum local = 1.37171e-05, global = 1.58699e-06, cumulative = 0.000404626
DICPCG:  Solving for p_rgh, Initial residual = 7.06313e-05, Final residual = 9.29762e-08, No Iterations 42
time step continuity errors : sum local = 3.97943e-08, global = -1.34645e-09, cumulative = 0.000404625
ExecutionTime = 0.55 s  ClockTime = 0 s

Courant Number mean: 0.0571339 max: 1.04583
Interface Courant Number mean: 0.00454466 max: 0.897955
deltaT = 0.00145378
Time = 0.10779

smoothSolver:  Solving for alpha.water, Initial residual = 0.00248267, Final residual = 3.96218e-10, No Iterations 3
Phase-1 volume fraction = 0.123583  Min(alpha.water) = -2.67778e-15  Max(alpha.water) = 1
MULES: Correcting alpha.water
MULES: Correcting alpha.water
Phase-1 volume fraction = 0.123583  Min(alpha.water) = -2.9179e-09  Max(alpha.water) = 1
DICPCG:  Solving for p_rgh, Initial residual = 0.0231968, Final residual = 0.000475896, No Iterations 1
time step continuity errors : sum local = 0.00019984, global = -1.27454e-08, cumulative = 0.000404612
DICPCG:  Solving for p_rgh, Initial residual = 0.000539947, Final residual = 2.47681e-05, No Iterations 12
time step continuity errors : sum local = 1.02094e-05, global = 1.03422e-06, cumulative = 0.000405646
DICPCG:  Solving for p_rgh, Initial residual = 6.68981e-05, Final residual = 9.7161e-08, No Iterations 44
time step continuity errors : sum local = 4.03198e-08, global = -2.74579e-09, cumulative = 0.000405643
ExecutionTime = 0.57 s  ClockTime = 0 s

Courant Number mean: 0.055222 max: 1.02813
Interface Courant Number mean: 0.00460824 max: 0.950911
deltaT = 0.00141164
Time = 0.109201

smoothSolver:  Solving for alpha.water, Initial residual = 0.00245043, Final residual = 3.39262e-10, No Iterations 3
Phase-1 volume fraction = 0.123583  Min(alpha.water) = -2.50836e-15  Max(alpha.water) = 1
MULES: Correcting alpha.water
MULES: Correcting alpha.water
Phase-1 volume fraction = 0.123583  Min(alpha.water) = -5.60066e-10  Max(alpha.water) = 1
DICPCG:  Solving for p_rgh, Initial residual = 0.0250487, Final residual = 0.000407801, No Iterations 1
time step continuity errors : sum local = 0.000167337, global = -3.98121e-09, cumulative = 0.000405639
DICPCG:  Solving for p_rgh, Initial residual = 0.000472565, Final residual = 2.01741e-05, No Iterations 12
time step continuity errors : sum local = 8.10445e-06, global = 8.65525e-07, cumulative = 0.000406505
DICPCG:  Solving for p_rgh, Initial residual = 5.02552e-05, Final residual = 9.97325e-08, No Iterations 43
time step continuity errors : sum local = 4.03153e-08, global = -2.85089e-09, cumulative = 0.000406502
ExecutionTime = 0.58 s  ClockTime = 0 s

Courant Number mean: 0.0542784 max: 1.01589
Interface Courant Number mean: 0.00459891 max: 0.922
deltaT = 0.00138476
Time = 0.110586

smoothSolver:  Solving for alpha.water, Initial residual = 0.00245057, Final residual = 3.06835e-10, No Iterations 3
Phase-1 volume fraction = 0.123583  Min(alpha.water) = -2.34708e-15  Max(alpha.water) = 1
MULES: Correcting alpha.water
MULES: Correcting alpha.water
Phase-1 volume fraction = 0.123583  Min(alpha.water) = -3.68188e-10  Max(alpha.water) = 1
DICPCG:  Solving for p_rgh, Initial residual = 0.0245995, Final residual = 0.00056829, No Iterations 1
time step continuity errors : sum local = 0.000217996, global = -1.68849e-09, cumulative = 0.0004065
DICPCG:  Solving for p_rgh, Initial residual = 0.000651909, Final residual = 2.65058e-05, No Iterations 12
time step continuity errors : sum local = 9.96199e-06, global = 1.35338e-06, cumulative = 0.000407854
DICPCG:  Solving for p_rgh, Initial residual = 7.2589e-05, Final residual = 8.88907e-08, No Iterations 44
time step continuity errors : sum local = 3.36183e-08, global = -6.05449e-10, cumulative = 0.000407853
ExecutionTime = 0.6 s  ClockTime = 0 s

Courant Number mean: 0.0538164 max: 0.933421
Interface Courant Number mean: 0.00470316 max: 0.933421
deltaT = 0.0014766
Time = 0.112063

smoothSolver:  Solving for alpha.water, Initial residual = 0.00265637, Final residual = 4.54818e-10, No Iterations 3
Phase-1 volume fraction = 0.123583  Min(alpha.water) = -2.18116e-15  Max(alpha.water) = 1
MULES: Correcting alpha.water
MULES: Correcting alpha.water
Phase-1 volume fraction = 0.123583  Min(alpha.water) = -5.83676e-10  Max(alpha.water) = 1
DICPCG:  Solving for p_rgh, Initial residual = 0.0246456, Final residual = 0.000601347, No Iterations 1
time step continuity errors : sum local = 0.000252371, global = -5.82724e-09, cumulative = 0.000407847
DICPCG:  Solving for p_rgh, Initial residual = 0.000686373, Final residual = 3.38028e-05, No Iterations 10
time step continuity errors : sum local = 1.39107e-05, global = 8.1742e-07, cumulative = 0.000408665
DICPCG:  Solving for p_rgh, Initial residual = 7.21247e-05, Final residual = 8.02539e-08, No Iterations 43
time step continuity errors : sum local = 3.32083e-08, global = 2.32496e-10, cumulative = 0.000408665
ExecutionTime = 0.62 s  ClockTime = 0 s

Courant Number mean: 0.0580333 max: 0.977849
Interface Courant Number mean: 0.00474724 max: 0.977849
deltaT = 0.00150753
Time = 0.11357

smoothSolver:  Solving for alpha.water, Initial residual = 0.00276137, Final residual = 5.20156e-10, No Iterations 3
Phase-1 volume fraction = 0.123583  Min(alpha.water) = -2.01832e-15  Max(alpha.water) = 1
MULES: Correcting alpha.water
MULES: Correcting alpha.water
Phase-1 volume fraction = 0.123583  Min(alpha.water) = -7.14995e-10  Max(alpha.water) = 1
DICPCG:  Solving for p_rgh, Initial residual = 0.0241058, Final residual = 0.000652166, No Iterations 1
time step continuity errors : sum local = 0.000280138, global = -7.86945e-10, cumulative = 0.000408664
DICPCG:  Solving for p_rgh, Initial residual = 0.000745752, Final residual = 3.16542e-05, No Iterations 13
time step continuity errors : sum local = 1.33445e-05, global = 1.64558e-06, cumulative = 0.00041031
DICPCG:  Solving for p_rgh, Initial residual = 9.75113e-05, Final residual = 8.16227e-08, No Iterations 45
time step continuity errors : sum local = 3.46687e-08, global = -2.06106e-09, cumulative = 0.000410308
ExecutionTime = 0.63 s  ClockTime = 0 s

Courant Number mean: 0.0598467 max: 0.908007
Interface Courant Number mean: 0.00520267 max: 0.908007
deltaT = 0.00165566
Time = 0.115226

smoothSolver:  Solving for alpha.water, Initial residual = 0.00305613, Final residual = 9.27861e-10, No Iterations 3
Phase-1 volume fraction = 0.123583  Min(alpha.water) = -1.84802e-15  Max(alpha.water) = 1
MULES: Correcting alpha.water
MULES: Correcting alpha.water
Phase-1 volume fraction = 0.123583  Min(alpha.water) = -2.2612e-09  Max(alpha.water) = 1
DICPCG:  Solving for p_rgh, Initial residual = 0.0246409, Final residual = 0.000614885, No Iterations 1
time step continuity errors : sum local = 0.000312853, global = -1.90577e-08, cumulative = 0.000410289
DICPCG:  Solving for p_rgh, Initial residual = 0.000730957, Final residual = 3.59418e-05, No Iterations 11
time step continuity errors : sum local = 1.79187e-05, global = 1.42967e-06, cumulative = 0.000411718
DICPCG:  Solving for p_rgh, Initial residual = 9.55579e-05, Final residual = 9.93033e-08, No Iterations 44
time step continuity errors : sum local = 4.98794e-08, global = 2.1485e-09, cumulative = 0.00041172
ExecutionTime = 0.65 s  ClockTime = 0 s

Courant Number mean: 0.066479 max: 1.02783
Interface Courant Number mean: 0.00624439 max: 1.02783
deltaT = 0.00160889
Time = 0.116835

smoothSolver:  Solving for alpha.water, Initial residual = 0.00299283, Final residual = 8.18395e-10, No Iterations 3
Phase-1 volume fraction = 0.123583  Min(alpha.water) = -1.69078e-15  Max(alpha.water) = 1
MULES: Correcting alpha.water
MULES: Correcting alpha.water
Phase-1 volume fraction = 0.123583  Min(alpha.water) = -1.31627e-06  Max(alpha.water) = 1
DICPCG:  Solving for p_rgh, Initial residual = 0.0241085, Final residual = 0.000638058, No Iterations 1
time step continuity errors : sum local = 0.000304069, global = -4.77349e-09, cumulative = 0.000411716
DICPCG:  Solving for p_rgh, Initial residual = 0.000730823, Final residual = 3.55684e-05, No Iterations 11
time step continuity errors : sum local = 1.6646e-05, global = 1.2987e-06, cumulative = 0.000413014
DICPCG:  Solving for p_rgh, Initial residual = 9.47065e-05, Final residual = 9.93966e-08, No Iterations 41
time step continuity errors : sum local = 4.69215e-08, global = 3.28281e-09, cumulative = 0.000413018
ExecutionTime = 0.66 s  ClockTime = 0 s

Courant Number mean: 0.0652632 max: 1.08314
Interface Courant Number mean: 0.00620519 max: 1.08314
deltaT = 0.00148254
Time = 0.118317

smoothSolver:  Solving for alpha.water, Initial residual = 0.00276125, Final residual = 5.11842e-10, No Iterations 3
Phase-1 volume fraction = 0.123583  Min(alpha.water) = -1.55344e-15  Max(alpha.water) = 1
MULES: Correcting alpha.water
MULES: Correcting alpha.water
Phase-1 volume fraction = 0.123583  Min(alpha.water) = -1.49806e-09  Max(alpha.water) = 1
DICPCG:  Solving for p_rgh, Initial residual = 0.0222998, Final residual = 0.000665242, No Iterations 1
time step continuity errors : sum local = 0.000271518, global = -7.8095e-09, cumulative = 0.00041301
DICPCG:  Solving for p_rgh, Initial residual = 0.00075592, Final residual = 3.7171e-05, No Iterations 8
time step continuity errors : sum local = 1.49205e-05, global = 9.6349e-08, cumulative = 0.000413106
DICPCG:  Solving for p_rgh, Initial residual = 8.96121e-05, Final residual = 9.02177e-08, No Iterations 47
time step continuity errors : sum local = 3.6416e-08, global = 1.59305e-09, cumulative = 0.000413108
ExecutionTime = 0.68 s  ClockTime = 0 s

Courant Number mean: 0.0606994 max: 1.03482
Interface Courant Number mean: 0.00582479 max: 1.03482
deltaT = 0.00142986
Time = 0.119747

smoothSolver:  Solving for alpha.water, Initial residual = 0.00266586, Final residual = 4.11305e-10, No Iterations 3
Phase-1 volume fraction = 0.123583  Min(alpha.water) = -1.42767e-15  Max(alpha.water) = 1
MULES: Correcting alpha.water
MULES: Correcting alpha.water
Phase-1 volume fraction = 0.123583  Min(alpha.water) = -1.7479e-09  Max(alpha.water) = 1
DICPCG:  Solving for p_rgh, Initial residual = 0.020953, Final residual = 0.000627309, No Iterations 1
time step continuity errors : sum local = 0.000239271, global = 7.14415e-10, cumulative = 0.000413108
DICPCG:  Solving for p_rgh, Initial residual = 0.00069241, Final residual = 3.33391e-05, No Iterations 8
time step continuity errors : sum local = 1.25444e-05, global = 5.73988e-08, cumulative = 0.000413166
DICPCG:  Solving for p_rgh, Initial residual = 7.21694e-05, Final residual = 8.38151e-08, No Iterations 46
time step continuity errors : sum local = 3.17653e-08, global = -4.00693e-10, cumulative = 0.000413165
ExecutionTime = 0.69 s  ClockTime = 0 s

Courant Number mean: 0.0590709 max: 1.04791
Interface Courant Number mean: 0.00546882 max: 0.945572
deltaT = 0.00136045
Time = 0.121108

smoothSolver:  Solving for alpha.water, Initial residual = 0.00254861, Final residual = 3.02904e-10, No Iterations 3
Phase-1 volume fraction = 0.123583  Min(alpha.water) = -1.3136e-15  Max(alpha.water) = 1
MULES: Correcting alpha.water
MULES: Correcting alpha.water
Phase-1 volume fraction = 0.123583  Min(alpha.water) = -3.77291e-10  Max(alpha.water) = 1
DICPCG:  Solving for p_rgh, Initial residual = 0.019174, Final residual = 0.000596098, No Iterations 1
time step continuity errors : sum local = 0.000208548, global = -1.01837e-10, cumulative = 0.000413165
DICPCG:  Solving for p_rgh, Initial residual = 0.000685115, Final residual = 3.05872e-05, No Iterations 8
time step continuity errors : sum local = 1.05847e-05, global = 4.83019e-08, cumulative = 0.000413214
DICPCG:  Solving for p_rgh, Initial residual = 6.58506e-05, Final residual = 9.14967e-08, No Iterations 47
time step continuity errors : sum local = 3.19066e-08, global = 7.85305e-10, cumulative = 0.000413214
ExecutionTime = 0.73 s  ClockTime = 0 s

Courant Number mean: 0.0567001 max: 1.04715
Interface Courant Number mean: 0.005241 max: 0.986979
deltaT = 0.00129717
Time = 0.122405

smoothSolver:  Solving for alpha.water, Initial residual = 0.00250541, Final residual = 2.25384e-10, No Iterations 3
Phase-1 volume fraction = 0.123583  Min(alpha.water) = -1.20918e-15  Max(alpha.water) = 1
MULES: Correcting alpha.water
MULES: Correcting alpha.water
Phase-1 volume fraction = 0.123583  Min(alpha.water) = -6.86035e-13  Max(alpha.water) = 1
DICPCG:  Solving for p_rgh, Initial residual = 0.018484, Final residual = 0.000564703, No Iterations 1
time step continuity errors : sum local = 0.000185306, global = 4.07712e-09, cumulative = 0.000413219
DICPCG:  Solving for p_rgh, Initial residual = 0.000641939, Final residual = 2.82561e-05, No Iterations 8
time step continuity errors : sum local = 9.18257e-06, global = 4.15993e-08, cumulative = 0.00041326
DICPCG:  Solving for p_rgh, Initial residual = 6.92023e-05, Final residual = 7.82495e-08, No Iterations 48
time step continuity errors : sum local = 2.56241e-08, global = 1.23933e-09, cumulative = 0.000413261
ExecutionTime = 0.73 s  ClockTime = 0 s

Courant Number mean: 0.0545148 max: 1.03084
Interface Courant Number mean: 0.00491584 max: 0.950529
deltaT = 0.00125609
Time = 0.123661

smoothSolver:  Solving for alpha.water, Initial residual = 0.00248514, Final residual = 1.90212e-10, No Iterations 3
Phase-1 volume fraction = 0.123583  Min(alpha.water) = -1.11157e-15  Max(alpha.water) = 1
MULES: Correcting alpha.water
MULES: Correcting alpha.water
Phase-1 volume fraction = 0.123583  Min(alpha.water) = -1.67698e-10  Max(alpha.water) = 1
DICPCG:  Solving for p_rgh, Initial residual = 0.019092, Final residual = 0.000512233, No Iterations 1
time step continuity errors : sum local = 0.000165986, global = 3.15229e-09, cumulative = 0.000413265
DICPCG:  Solving for p_rgh, Initial residual = 0.000612245, Final residual = 2.85857e-05, No Iterations 9
time step continuity errors : sum local = 9.14971e-06, global = 8.42717e-08, cumulative = 0.000413349
DICPCG:  Solving for p_rgh, Initial residual = 7.70122e-05, Final residual = 8.73948e-08, No Iterations 47
time step continuity errors : sum local = 2.82218e-08, global = -7.23921e-10, cumulative = 0.000413348
ExecutionTime = 0.76 s  ClockTime = 0 s

Courant Number mean: 0.0531992 max: 0.982882
Interface Courant Number mean: 0.00512777 max: 0.982882
deltaT = 0.00127345
Time = 0.124934

smoothSolver:  Solving for alpha.water, Initial residual = 0.00255104, Final residual = 2.15294e-10, No Iterations 3
Phase-1 volume fraction = 0.123583  Min(alpha.water) = -1.01562e-15  Max(alpha.water) = 1
MULES: Correcting alpha.water
MULES: Correcting alpha.water
Phase-1 volume fraction = 0.123583  Min(alpha.water) = -3.387e-10  Max(alpha.water) = 1
DICPCG:  Solving for p_rgh, Initial residual = 0.0214489, Final residual = 0.00047915, No Iterations 1
time step continuity errors : sum local = 0.000167429, global = -1.23746e-09, cumulative = 0.000413347
DICPCG:  Solving for p_rgh, Initial residual = 0.000582035, Final residual = 2.87202e-05, No Iterations 9
time step continuity errors : sum local = 9.89001e-06, global = 7.55679e-08, cumulative = 0.000413422
DICPCG:  Solving for p_rgh, Initial residual = 8.26089e-05, Final residual = 8.58644e-08, No Iterations 48
time step continuity errors : sum local = 2.98233e-08, global = -4.35675e-10, cumulative = 0.000413422
ExecutionTime = 0.77 s  ClockTime = 0 s

Courant Number mean: 0.0543641 max: 0.926914
Interface Courant Number mean: 0.00517893 max: 0.926914
deltaT = 0.00136849
Time = 0.126303

smoothSolver:  Solving for alpha.water, Initial residual = 0.00277285, Final residual = 3.44258e-10, No Iterations 3
Phase-1 volume fraction = 0.123583  Min(alpha.water) = -9.15192e-16  Max(alpha.water) = 1
MULES: Correcting alpha.water
MULES: Correcting alpha.water
Phase-1 volume fraction = 0.123583  Min(alpha.water) = -5.01215e-10  Max(alpha.water) = 1
DICPCG:  Solving for p_rgh, Initial residual = 0.0231475, Final residual = 0.00047056, No Iterations 1
time step continuity errors : sum local = 0.000188758, global = 7.76066e-10, cumulative = 0.000413423
DICPCG:  Solving for p_rgh, Initial residual = 0.000549529, Final residual = 2.70025e-05, No Iterations 9
time step continuity errors : sum local = 1.06347e-05, global = 7.95904e-08, cumulative = 0.000413502
DICPCG:  Solving for p_rgh, Initial residual = 7.96247e-05, Final residual = 9.11153e-08, No Iterations 48
time step continuity errors : sum local = 3.61803e-08, global = -2.20073e-09, cumulative = 0.0004135
ExecutionTime = 0.79 s  ClockTime = 0 s

Courant Number mean: 0.0588512 max: 0.935058
Interface Courant Number mean: 0.00600077 max: 0.935058
deltaT = 0.00145584
Time = 0.127759

smoothSolver:  Solving for alpha.water, Initial residual = 0.0029937, Final residual = 5.17133e-10, No Iterations 3
Phase-1 volume fraction = 0.123583  Min(alpha.water) = -8.2739e-16  Max(alpha.water) = 1
MULES: Correcting alpha.water
MULES: Correcting alpha.water
Phase-1 volume fraction = 0.123583  Min(alpha.water) = -6.0207e-10  Max(alpha.water) = 1
DICPCG:  Solving for p_rgh, Initial residual = 0.0228351, Final residual = 0.00053082, No Iterations 1
time step continuity errors : sum local = 0.000233077, global = -3.89597e-09, cumulative = 0.000413496
DICPCG:  Solving for p_rgh, Initial residual = 0.0006335, Final residual = 2.99803e-05, No Iterations 13
time step continuity errors : sum local = 1.29424e-05, global = 1.00953e-06, cumulative = 0.000414506
DICPCG:  Solving for p_rgh, Initial residual = 8.8997e-05, Final residual = 8.87192e-08, No Iterations 46
time step continuity errors : sum local = 3.87536e-08, global = -5.08845e-11, cumulative = 0.000414506
ExecutionTime = 0.8 s  ClockTime = 0 s

Courant Number mean: 0.0630939 max: 0.937278
Interface Courant Number mean: 0.00627534 max: 0.937278
deltaT = 0.00154683
Time = 0.129305

smoothSolver:  Solving for alpha.water, Initial residual = 0.00317366, Final residual = 7.59742e-10, No Iterations 3
Phase-1 volume fraction = 0.123583  Min(alpha.water) = -7.77078e-16  Max(alpha.water) = 1
MULES: Correcting alpha.water
MULES: Correcting alpha.water
Phase-1 volume fraction = 0.123583  Min(alpha.water) = -8.18205e-10  Max(alpha.water) = 1
DICPCG:  Solving for p_rgh, Initial residual = 0.0234739, Final residual = 0.000552862, No Iterations 1
time step continuity errors : sum local = 0.000270033, global = -6.37311e-09, cumulative = 0.000414499
DICPCG:  Solving for p_rgh, Initial residual = 0.000691369, Final residual = 3.2568e-05, No Iterations 13
time step continuity errors : sum local = 1.56205e-05, global = 1.25311e-06, cumulative = 0.000415752
DICPCG:  Solving for p_rgh, Initial residual = 0.00010337, Final residual = 9.35859e-08, No Iterations 46
time step continuity errors : sum local = 4.55539e-08, global = 3.90004e-10, cumulative = 0.000415753
ExecutionTime = 0.82 s  ClockTime = 0 s

Courant Number mean: 0.0676135 max: 0.960073
Interface Courant Number mean: 0.00650933 max: 0.960073
deltaT = 0.00160174
Time = 0.130907

smoothSolver:  Solving for alpha.water, Initial residual = 0.00327917, Final residual = 9.47801e-10, No Iterations 3
Phase-1 volume fraction = 0.123583  Min(alpha.water) = -7.2618e-16  Max(alpha.water) = 1
MULES: Correcting alpha.water
MULES: Correcting alpha.water
Phase-1 volume fraction = 0.123583  Min(alpha.water) = -2.05862e-09  Max(alpha.water) = 1
DICPCG:  Solving for p_rgh, Initial residual = 0.0212727, Final residual = 0.000609138, No Iterations 1
time step continuity errors : sum local = 0.000311653, global = -6.10483e-09, cumulative = 0.000415747
DICPCG:  Solving for p_rgh, Initial residual = 0.000732784, Final residual = 2.95057e-05, No Iterations 14
time step continuity errors : sum local = 1.48629e-05, global = 1.31087e-06, cumulative = 0.000417058
DICPCG:  Solving for p_rgh, Initial residual = 9.65369e-05, Final residual = 9.73375e-08, No Iterations 49
time step continuity errors : sum local = 4.98643e-08, global = -2.53537e-09, cumulative = 0.000417055
ExecutionTime = 0.83 s  ClockTime = 0 s

Courant Number mean: 0.0706965 max: 0.961507
Interface Courant Number mean: 0.00677158 max: 0.961507
deltaT = 0.00166107
Time = 0.132568

smoothSolver:  Solving for alpha.water, Initial residual = 0.00344096, Final residual = 1.19056e-09, No Iterations 3
Phase-1 volume fraction = 0.123583  Min(alpha.water) = -6.7475e-16  Max(alpha.water) = 1
MULES: Correcting alpha.water
MULES: Correcting alpha.water
Phase-1 volume fraction = 0.123583  Min(alpha.water) = -7.24306e-09  Max(alpha.water) = 1
DICPCG:  Solving for p_rgh, Initial residual = 0.0210944, Final residual = 0.000605653, No Iterations 1
time step continuity errors : sum local = 0.000332628, global = -1.43905e-08, cumulative = 0.000417041
DICPCG:  Solving for p_rgh, Initial residual = 0.000720048, Final residual = 2.87991e-05, No Iterations 14
time step continuity errors : sum local = 1.55801e-05, global = 1.3503e-06, cumulative = 0.000418391
DICPCG:  Solving for p_rgh, Initial residual = 9.87469e-05, Final residual = 8.89621e-08, No Iterations 49
time step continuity errors : sum local = 4.89497e-08, global = -3.01321e-09, cumulative = 0.000418388
ExecutionTime = 0.85 s  ClockTime = 0 s

Courant Number mean: 0.0741193 max: 0.960697
Interface Courant Number mean: 0.00731602 max: 0.960697
deltaT = 0.00172537
Time = 0.134294

smoothSolver:  Solving for alpha.water, Initial residual = 0.00369461, Final residual = 1.50093e-09, No Iterations 3
Phase-1 volume fraction = 0.123583  Min(alpha.water) = -6.22758e-16  Max(alpha.water) = 1
MULES: Correcting alpha.water
MULES: Correcting alpha.water
Phase-1 volume fraction = 0.123583  Min(alpha.water) = -1.65721e-09  Max(alpha.water) = 1
DICPCG:  Solving for p_rgh, Initial residual = 0.0201679, Final residual = 0.000647025, No Iterations 1
time step continuity errors : sum local = 0.000386311, global = -1.24142e-08, cumulative = 0.000418376
DICPCG:  Solving for p_rgh, Initial residual = 0.000772568, Final residual = 2.50477e-05, No Iterations 14
time step continuity errors : sum local = 1.47487e-05, global = 1.93678e-06, cumulative = 0.000420312
DICPCG:  Solving for p_rgh, Initial residual = 9.98273e-05, Final residual = 7.95257e-08, No Iterations 49
time step continuity errors : sum local = 4.76399e-08, global = -5.74573e-10, cumulative = 0.000420312
ExecutionTime = 0.87 s  ClockTime = 0 s

Courant Number mean: 0.0778439 max: 0.960373
Interface Courant Number mean: 0.00770043 max: 0.781324
deltaT = 0.00179531
Time = 0.136089

smoothSolver:  Solving for alpha.water, Initial residual = 0.00394198, Final residual = 2.00085e-09, No Iterations 3
Phase-1 volume fraction = 0.123583  Min(alpha.water) = -5.701e-16  Max(alpha.water) = 1
MULES: Correcting alpha.water
MULES: Correcting alpha.water
Phase-1 volume fraction = 0.123583  Min(alpha.water) = -3.35107e-12  Max(alpha.water) = 1
DICPCG:  Solving for p_rgh, Initial residual = 0.0201651, Final residual = 0.000695846, No Iterations 1
time step continuity errors : sum local = 0.000456183, global = -1.16588e-08, cumulative = 0.0004203
DICPCG:  Solving for p_rgh, Initial residual = 0.000813795, Final residual = 4.0448e-05, No Iterations 11
time step continuity errors : sum local = 2.61218e-05, global = 1.37375e-06, cumulative = 0.000421674
DICPCG:  Solving for p_rgh, Initial residual = 0.00011046, Final residual = 7.72836e-08, No Iterations 49
time step continuity errors : sum local = 5.05053e-08, global = 2.40353e-09, cumulative = 0.000421676
ExecutionTime = 0.89 s  ClockTime = 1 s

Courant Number mean: 0.0817847 max: 0.958627
Interface Courant Number mean: 0.00849853 max: 0.785009
deltaT = 0.00187171
Time = 0.137961

smoothSolver:  Solving for alpha.water, Initial residual = 0.00416427, Final residual = 2.66148e-09, No Iterations 3
Phase-1 volume fraction = 0.123583  Min(alpha.water) = -5.1681e-16  Max(alpha.water) = 1
MULES: Correcting alpha.water
MULES: Correcting alpha.water
Phase-1 volume fraction = 0.123583  Min(alpha.water) = -4.88545e-12  Max(alpha.water) = 1
DICPCG:  Solving for p_rgh, Initial residual = 0.020132, Final residual = 0.000646387, No Iterations 1
time step continuity errors : sum local = 0.000470515, global = -1.42034e-08, cumulative = 0.000421662
DICPCG:  Solving for p_rgh, Initial residual = 0.000735847, Final residual = 3.46405e-05, No Iterations 12
time step continuity errors : sum local = 2.48284e-05, global = 1.96853e-06, cumulative = 0.000423631
DICPCG:  Solving for p_rgh, Initial residual = 0.00010557, Final residual = 9.46729e-08, No Iterations 48
time step continuity errors : sum local = 6.85417e-08, global = 2.36273e-09, cumulative = 0.000423633
ExecutionTime = 0.89 s  ClockTime = 1 s

Courant Number mean: 0.0860267 max: 0.957133
Interface Courant Number mean: 0.00936181 max: 0.735028
deltaT = 0.00195552
Time = 0.139916

smoothSolver:  Solving for alpha.water, Initial residual = 0.00436183, Final residual = 3.5393e-09, No Iterations 3
Phase-1 volume fraction = 0.123583  Min(alpha.water) = -4.62785e-16  Max(alpha.water) = 1
MULES: Correcting alpha.water
MULES: Correcting alpha.water
Phase-1 volume fraction = 0.123583  Min(alpha.water) = -1.71672e-10  Max(alpha.water) = 1
DICPCG:  Solving for p_rgh, Initial residual = 0.0228153, Final residual = 0.000580647, No Iterations 1
time step continuity errors : sum local = 0.00047791, global = -2.19113e-08, cumulative = 0.000423611
DICPCG:  Solving for p_rgh, Initial residual = 0.000667849, Final residual = 2.99175e-05, No Iterations 12
time step continuity errors : sum local = 2.41465e-05, global = 1.77556e-06, cumulative = 0.000425387
DICPCG:  Solving for p_rgh, Initial residual = 0.000105363, Final residual = 8.79531e-08, No Iterations 48
time step continuity errors : sum local = 7.15974e-08, global = 1.72399e-09, cumulative = 0.000425388
ExecutionTime = 0.9 s  ClockTime = 1 s

Courant Number mean: 0.0906071 max: 0.95809
Interface Courant Number mean: 0.0103194 max: 0.774855
deltaT = 0.00203191
Time = 0.141948

smoothSolver:  Solving for alpha.water, Initial residual = 0.00460226, Final residual = 4.51203e-09, No Iterations 3
Phase-1 volume fraction = 0.123583  Min(alpha.water) = -4.08284e-16  Max(alpha.water) = 1
MULES: Correcting alpha.water
MULES: Correcting alpha.water
Phase-1 volume fraction = 0.123583  Min(alpha.water) = -9.84553e-11  Max(alpha.water) = 1
DICPCG:  Solving for p_rgh, Initial residual = 0.0262915, Final residual = 0.000591563, No Iterations 1
time step continuity errors : sum local = 0.000540339, global = -2.27653e-08, cumulative = 0.000425366
DICPCG:  Solving for p_rgh, Initial residual = 0.00069684, Final residual = 3.45866e-05, No Iterations 12
time step continuity errors : sum local = 3.08499e-05, global = 1.85923e-06, cumulative = 0.000427225
DICPCG:  Solving for p_rgh, Initial residual = 0.000114066, Final residual = 8.18147e-08, No Iterations 48
time step continuity errors : sum local = 7.36345e-08, global = 4.435e-10, cumulative = 0.000427225
ExecutionTime = 0.92 s  ClockTime = 1 s

Courant Number mean: 0.0948279 max: 0.955903
Interface Courant Number mean: 0.0103803 max: 0.801959
deltaT = 0.00211518
Time = 0.144063

smoothSolver:  Solving for alpha.water, Initial residual = 0.00491942, Final residual = 5.76957e-09, No Iterations 3
Phase-1 volume fraction = 0.123583  Min(alpha.water) = -3.52857e-16  Max(alpha.water) = 1
MULES: Correcting alpha.water
MULES: Correcting alpha.water
Phase-1 volume fraction = 0.123583  Min(alpha.water) = -9.72583e-10  Max(alpha.water) = 1
DICPCG:  Solving for p_rgh, Initial residual = 0.0244538, Final residual = 0.000594597, No Iterations 1
time step continuity errors : sum local = 0.00057057, global = -2.42765e-08, cumulative = 0.000427201
DICPCG:  Solving for p_rgh, Initial residual = 0.000716058, Final residual = 3.11243e-05, No Iterations 14
time step continuity errors : sum local = 2.92556e-05, global = 2.53122e-06, cumulative = 0.000429732
DICPCG:  Solving for p_rgh, Initial residual = 0.000123936, Final residual = 5.63727e-08, No Iterations 50
time step continuity errors : sum local = 5.37991e-08, global = 1.84596e-09, cumulative = 0.000429734
ExecutionTime = 0.93 s  ClockTime = 1 s

Courant Number mean: 0.099486 max: 0.959429
Interface Courant Number mean: 0.011197 max: 0.831981
deltaT = 0.00218749
Time = 0.146251

smoothSolver:  Solving for alpha.water, Initial residual = 0.0051712, Final residual = 7.23667e-09, No Iterations 3
Phase-1 volume fraction = 0.123583  Min(alpha.water) = -2.99002e-16  Max(alpha.water) = 1
MULES: Correcting alpha.water
MULES: Correcting alpha.water
Phase-1 volume fraction = 0.123583  Min(alpha.water) = -1.88065e-08  Max(alpha.water) = 1
DICPCG:  Solving for p_rgh, Initial residual = 0.0229638, Final residual = 0.000703731, No Iterations 1
time step continuity errors : sum local = 0.000713491, global = -9.53247e-09, cumulative = 0.000429725
DICPCG:  Solving for p_rgh, Initial residual = 0.000817878, Final residual = 3.67138e-05, No Iterations 14
time step continuity errors : sum local = 3.65606e-05, global = 4.03803e-06, cumulative = 0.000433763
DICPCG:  Solving for p_rgh, Initial residual = 0.000139637, Final residual = 6.24077e-08, No Iterations 50
time step continuity errors : sum local = 6.32618e-08, global = 1.22645e-09, cumulative = 0.000433764
ExecutionTime = 0.95 s  ClockTime = 1 s

Courant Number mean: 0.103621 max: 0.960576
Interface Courant Number mean: 0.0121773 max: 0.85379
deltaT = 0.00226562
Time = 0.148516

smoothSolver:  Solving for alpha.water, Initial residual = 0.00545891, Final residual = 9.16529e-09, No Iterations 3
Phase-1 volume fraction = 0.123583  Min(alpha.water) = -2.46575e-16  Max(alpha.water) = 1
MULES: Correcting alpha.water
MULES: Correcting alpha.water
Phase-1 volume fraction = 0.123583  Min(alpha.water) = -3.20981e-09  Max(alpha.water) = 1
DICPCG:  Solving for p_rgh, Initial residual = 0.0224701, Final residual = 0.000700566, No Iterations 1
time step continuity errors : sum local = 0.00076676, global = -3.65856e-08, cumulative = 0.000433727
DICPCG:  Solving for p_rgh, Initial residual = 0.000817063, Final residual = 3.71987e-05, No Iterations 14
time step continuity errors : sum local = 3.99722e-05, global = 3.89159e-06, cumulative = 0.000437619
DICPCG:  Solving for p_rgh, Initial residual = 0.000142161, Final residual = 9.38447e-08, No Iterations 49
time step continuity errors : sum local = 1.02481e-07, global = -1.30712e-09, cumulative = 0.000437617
ExecutionTime = 0.96 s  ClockTime = 1 s

Courant Number mean: 0.107956 max: 0.965872
Interface Courant Number mean: 0.0131681 max: 0.873406
deltaT = 0.00232855
Time = 0.150845

smoothSolver:  Solving for alpha.water, Initial residual = 0.00573708, Final residual = 1.66523e-10, No Iterations 4
Phase-1 volume fraction = 0.123583  Min(alpha.water) = -2.04189e-16  Max(alpha.water) = 1
MULES: Correcting alpha.water
MULES: Correcting alpha.water
Phase-1 volume fraction = 0.123583  Min(alpha.water) = -3.42302e-09  Max(alpha.water) = 1
DICPCG:  Solving for p_rgh, Initial residual = 0.0211573, Final residual = 0.000763763, No Iterations 1
time step continuity errors : sum local = 0.000887141, global = -3.62356e-08, cumulative = 0.000437581
DICPCG:  Solving for p_rgh, Initial residual = 0.000877127, Final residual = 4.20825e-05, No Iterations 10
time step continuity errors : sum local = 4.80576e-05, global = 6.03461e-07, cumulative = 0.000438185
DICPCG:  Solving for p_rgh, Initial residual = 0.000155341, Final residual = 9.10617e-08, No Iterations 50
time step continuity errors : sum local = 1.04897e-07, global = -6.16667e-09, cumulative = 0.000438179
ExecutionTime = 0.96 s  ClockTime = 1 s

Courant Number mean: 0.111542 max: 0.966078
Interface Courant Number mean: 0.0134769 max: 0.899562
deltaT = 0.00239572
Time = 0.153241

smoothSolver:  Solving for alpha.water, Initial residual = 0.00600518, Final residual = 2.19353e-10, No Iterations 4
Phase-1 volume fraction = 0.123583  Min(alpha.water) = -1.85038e-16  Max(alpha.water) = 1
MULES: Correcting alpha.water
MULES: Correcting alpha.water
Phase-1 volume fraction = 0.123583  Min(alpha.water) = -1.55676e-09  Max(alpha.water) = 1
DICPCG:  Solving for p_rgh, Initial residual = 0.0204415, Final residual = 0.000827605, No Iterations 1
time step continuity errors : sum local = 0.00102242, global = -1.05982e-08, cumulative = 0.000438168
DICPCG:  Solving for p_rgh, Initial residual = 0.000949196, Final residual = 3.99106e-05, No Iterations 8
time step continuity errors : sum local = 4.85359e-05, global = -1.75699e-08, cumulative = 0.00043815
DICPCG:  Solving for p_rgh, Initial residual = 0.000169265, Final residual = 7.82156e-08, No Iterations 51
time step continuity errors : sum local = 9.558e-08, global = -4.4183e-09, cumulative = 0.000438146
ExecutionTime = 0.98 s  ClockTime = 1 s

Courant Number mean: 0.115417 max: 0.969594
Interface Courant Number mean: 0.0148527 max: 0.911834
deltaT = 0.00246759
Time = 0.155708

smoothSolver:  Solving for alpha.water, Initial residual = 0.0063411, Final residual = 2.89772e-10, No Iterations 4
Phase-1 volume fraction = 0.123583  Min(alpha.water) = -1.6584e-16  Max(alpha.water) = 1
MULES: Correcting alpha.water
MULES: Correcting alpha.water
Phase-1 volume fraction = 0.123583  Min(alpha.water) = -5.45963e-10  Max(alpha.water) = 1.00002
DICPCG:  Solving for p_rgh, Initial residual = 0.021875, Final residual = 0.000791055, No Iterations 1
time step continuity errors : sum local = 0.00106399, global = 1.1931e-08, cumulative = 0.000438158
DICPCG:  Solving for p_rgh, Initial residual = 0.000911428, Final residual = 3.92685e-05, No Iterations 8
time step continuity errors : sum local = 5.19162e-05, global = -7.63087e-08, cumulative = 0.000438082
DICPCG:  Solving for p_rgh, Initial residual = 0.000162666, Final residual = 7.954e-08, No Iterations 51
time step continuity errors : sum local = 1.05652e-07, global = -6.2619e-09, cumulative = 0.000438075
ExecutionTime = 1 s  ClockTime = 1 s

Courant Number mean: 0.119732 max: 0.976241
Interface Courant Number mean: 0.0155928 max: 0.916217
deltaT = 0.00251847
Time = 0.158227

smoothSolver:  Solving for alpha.water, Initial residual = 0.00659081, Final residual = 3.55067e-10, No Iterations 4
Phase-1 volume fraction = 0.123583  Min(alpha.water) = -1.46824e-16  Max(alpha.water) = 1
MULES: Correcting alpha.water
MULES: Correcting alpha.water
Phase-1 volume fraction = 0.123583  Min(alpha.water) = -1.24566e-09  Max(alpha.water) = 1.00001
DICPCG:  Solving for p_rgh, Initial residual = 0.0235108, Final residual = 0.000669101, No Iterations 1
time step continuity errors : sum local = 0.000948359, global = 9.86947e-09, cumulative = 0.000438085
DICPCG:  Solving for p_rgh, Initial residual = 0.000789984, Final residual = 3.41691e-05, No Iterations 8
time step continuity errors : sum local = 4.74814e-05, global = -4.80721e-08, cumulative = 0.000438037
DICPCG:  Solving for p_rgh, Initial residual = 0.000160359, Final residual = 8.47968e-08, No Iterations 52
time step continuity errors : sum local = 1.18271e-07, global = -6.75112e-09, cumulative = 0.00043803
ExecutionTime = 1.03 s  ClockTime = 1 s

Courant Number mean: 0.122954 max: 0.975537
Interface Courant Number mean: 0.0157221 max: 0.919889
deltaT = 0.00257206
Time = 0.160799

smoothSolver:  Solving for alpha.water, Initial residual = 0.00673463, Final residual = 4.31642e-10, No Iterations 4
Phase-1 volume fraction = 0.123583  Min(alpha.water) = -1.27987e-16  Max(alpha.water) = 1
MULES: Correcting alpha.water
MULES: Correcting alpha.water
Phase-1 volume fraction = 0.123583  Min(alpha.water) = -3.63637e-07  Max(alpha.water) = 1
DICPCG:  Solving for p_rgh, Initial residual = 0.0227674, Final residual = 0.000697841, No Iterations 1
time step continuity errors : sum local = 0.00101468, global = 1.58115e-08, cumulative = 0.000438046
DICPCG:  Solving for p_rgh, Initial residual = 0.000820077, Final residual = 3.47943e-05, No Iterations 7
time step continuity errors : sum local = 4.95941e-05, global = -4.5553e-08, cumulative = 0.000438001
DICPCG:  Solving for p_rgh, Initial residual = 0.000166433, Final residual = 9.11008e-08, No Iterations 52
time step continuity errors : sum local = 1.29908e-07, global = -4.12845e-09, cumulative = 0.000437996
ExecutionTime = 1.04 s  ClockTime = 1 s

Courant Number mean: 0.126459 max: 0.978959
Interface Courant Number mean: 0.0170617 max: 0.978959
deltaT = 0.00260001
Time = 0.163399

smoothSolver:  Solving for alpha.water, Initial residual = 0.00696506, Final residual = 4.8386e-10, No Iterations 4
Phase-1 volume fraction = 0.123583  Min(alpha.water) = -1.09857e-16  Max(alpha.water) = 1
MULES: Correcting alpha.water
MULES: Correcting alpha.water
Phase-1 volume fraction = 0.123583  Min(alpha.water) = -4.4828e-07  Max(alpha.water) = 1
DICPCG:  Solving for p_rgh, Initial residual = 0.0206975, Final residual = 0.000717684, No Iterations 1
time step continuity errors : sum local = 0.00104376, global = 2.13237e-08, cumulative = 0.000438018
DICPCG:  Solving for p_rgh, Initial residual = 0.000839545, Final residual = 3.63392e-05, No Iterations 7
time step continuity errors : sum local = 5.19105e-05, global = -1.2323e-08, cumulative = 0.000438005
DICPCG:  Solving for p_rgh, Initial residual = 0.000171935, Final residual = 5.93368e-08, No Iterations 53
time step continuity errors : sum local = 8.47914e-08, global = -1.48198e-09, cumulative = 0.000438004
ExecutionTime = 1.06 s  ClockTime = 1 s

Courant Number mean: 0.128896 max: 0.97237
Interface Courant Number mean: 0.0181436 max: 0.97237
deltaT = 0.00265844
Time = 0.166057

smoothSolver:  Solving for alpha.water, Initial residual = 0.00745497, Final residual = 5.81286e-10, No Iterations 4
Phase-1 volume fraction = 0.123583  Min(alpha.water) = -9.32417e-17  Max(alpha.water) = 1
MULES: Correcting alpha.water
MULES: Correcting alpha.water
Phase-1 volume fraction = 0.123583  Min(alpha.water) = -2.24817e-06  Max(alpha.water) = 1
DICPCG:  Solving for p_rgh, Initial residual = 0.0196131, Final residual = 0.000734162, No Iterations 1
time step continuity errors : sum local = 0.00110017, global = 3.37759e-08, cumulative = 0.000438038
DICPCG:  Solving for p_rgh, Initial residual = 0.000850472, Final residual = 4.04178e-05, No Iterations 6
time step continuity errors : sum local = 5.95913e-05, global = 2.94264e-08, cumulative = 0.000438067
DICPCG:  Solving for p_rgh, Initial residual = 0.000176918, Final residual = 9.70216e-08, No Iterations 52
time step continuity errors : sum local = 1.42896e-07, global = -4.13793e-09, cumulative = 0.000438063
ExecutionTime = 1.07 s  ClockTime = 1 s

Courant Number mean: 0.133077 max: 0.977459
Interface Courant Number mean: 0.0184356 max: 0.977459
deltaT = 0.002689
Time = 0.168746

smoothSolver:  Solving for alpha.water, Initial residual = 0.00771852, Final residual = 6.26936e-10, No Iterations 4
Phase-1 volume fraction = 0.123583  Min(alpha.water) = -8.93906e-17  Max(alpha.water) = 1
MULES: Correcting alpha.water
MULES: Correcting alpha.water
Phase-1 volume fraction = 0.123583  Min(alpha.water) = -1.56472e-06  Max(alpha.water) = 1
[...]
DICPCG:  Solving for p_rgh, Initial residual = 0.000182757, Final residual = 6.25151e-08, No Iterations 65
time step continuity errors : sum local = 2.44424e-08, global = 1.36973e-09, cumulative = 0.00052862
ExecutionTime = 3.02 s  ClockTime = 3 s

Courant Number mean: 0.0870184 max: 0.978654
Interface Courant Number mean: 0.0171403 max: 0.978654
deltaT = 0.00128717
Time = 0.385841

smoothSolver:  Solving for alpha.water, Initial residual = 0.00347976, Final residual = 3.84706e-09, No Iterations 3
Phase-1 volume fraction = 0.123491  Min(alpha.water) = -1.90174e-13  Max(alpha.water) = 1
MULES: Correcting alpha.water
MULES: Correcting alpha.water
Phase-1 volume fraction = 0.123492  Min(alpha.water) = -1.52153e-05  Max(alpha.water) = 1
DICPCG:  Solving for p_rgh, Initial residual = 0.0200675, Final residual = 0.000649823, No Iterations 3
time step continuity errors : sum local = 0.000263846, global = 1.06448e-05, cumulative = 0.000539265
DICPCG:  Solving for p_rgh, Initial residual = 0.000839586, Final residual = 3.92024e-05, No Iterations 10
time step continuity errors : sum local = 1.58806e-05, global = 3.06342e-06, cumulative = 0.000542328
DICPCG:  Solving for p_rgh, Initial residual = 0.000169924, Final residual = 8.0826e-08, No Iterations 64
time step continuity errors : sum local = 3.27285e-08, global = 1.22396e-09, cumulative = 0.000542329
ExecutionTime = 3.04 s  ClockTime = 3 s

Courant Number mean: 0.0864504 max: 1.00155
Interface Courant Number mean: 0.0172367 max: 0.969002
deltaT = 0.0011799
Time = 0.387021

smoothSolver:  Solving for alpha.water, Initial residual = 0.00319763, Final residual = 4.5677e-09, No Iterations 3
Phase-1 volume fraction = 0.123479  Min(alpha.water) = -1.6876e-13  Max(alpha.water) = 1
MULES: Correcting alpha.water
MULES: Correcting alpha.water
Phase-1 volume fraction = 0.12348  Min(alpha.water) = -1.07178e-05  Max(alpha.water) = 1
DICPCG:  Solving for p_rgh, Initial residual = 0.0191123, Final residual = 0.000701351, No Iterations 3
time step continuity errors : sum local = 0.000249141, global = 7.03004e-06, cumulative = 0.000549359
DICPCG:  Solving for p_rgh, Initial residual = 0.000889449, Final residual = 3.93729e-05, No Iterations 9
time step continuity errors : sum local = 1.39603e-05, global = 1.88176e-06, cumulative = 0.000551241
DICPCG:  Solving for p_rgh, Initial residual = 0.000170538, Final residual = 7.52605e-08, No Iterations 64
time step continuity errors : sum local = 2.66802e-08, global = 3.21798e-10, cumulative = 0.000551241
ExecutionTime = 3.06 s  ClockTime = 3 s

Courant Number mean: 0.0790322 max: 1.00457
Interface Courant Number mean: 0.0152998 max: 0.870697
deltaT = 0.00108158
Time = 0.388103

smoothSolver:  Solving for alpha.water, Initial residual = 0.00294227, Final residual = 5.43882e-09, No Iterations 3
Phase-1 volume fraction = 0.123469  Min(alpha.water) = -1.51334e-13  Max(alpha.water) = 1
MULES: Correcting alpha.water
MULES: Correcting alpha.water
Phase-1 volume fraction = 0.123469  Min(alpha.water) = -1.71624e-06  Max(alpha.water) = 1
DICPCG:  Solving for p_rgh, Initial residual = 0.0185204, Final residual = 0.000701899, No Iterations 3
time step continuity errors : sum local = 0.000214689, global = 5.17579e-06, cumulative = 0.000556417
DICPCG:  Solving for p_rgh, Initial residual = 0.000879027, Final residual = 3.48742e-05, No Iterations 10
time step continuity errors : sum local = 1.0667e-05, global = 2.42027e-06, cumulative = 0.000558837
DICPCG:  Solving for p_rgh, Initial residual = 0.000175365, Final residual = 7.48365e-08, No Iterations 63
time step continuity errors : sum local = 2.28881e-08, global = 4.90112e-10, cumulative = 0.000558838
ExecutionTime = 3.07 s  ClockTime = 3 s

Courant Number mean: 0.0723805 max: 1.00507
Interface Courant Number mean: 0.0138749 max: 0.758334
deltaT = 0.000991446
Time = 0.389094

smoothSolver:  Solving for alpha.water, Initial residual = 0.00269958, Final residual = 6.15278e-09, No Iterations 3
Phase-1 volume fraction = 0.123459  Min(alpha.water) = -1.37001e-13  Max(alpha.water) = 1
MULES: Correcting alpha.water
MULES: Correcting alpha.water
Phase-1 volume fraction = 0.12346  Min(alpha.water) = -1.76815e-06  Max(alpha.water) = 1
DICPCG:  Solving for p_rgh, Initial residual = 0.0149031, Final residual = 0.000734211, No Iterations 3
time step continuity errors : sum local = 0.000188244, global = 3.74261e-06, cumulative = 0.00056258
DICPCG:  Solving for p_rgh, Initial residual = 0.000893468, Final residual = 3.89871e-05, No Iterations 9
time step continuity errors : sum local = 9.98745e-06, global = 1.54938e-06, cumulative = 0.00056413
DICPCG:  Solving for p_rgh, Initial residual = 0.000165314, Final residual = 9.24112e-08, No Iterations 59
time step continuity errors : sum local = 2.36719e-08, global = 2.0544e-09, cumulative = 0.000564132
ExecutionTime = 3.07 s  ClockTime = 3 s

Courant Number mean: 0.0663171 max: 0.960869
Interface Courant Number mean: 0.0122553 max: 0.655457
deltaT = 0.000991446
Time = 0.390086

smoothSolver:  Solving for alpha.water, Initial residual = 0.00274768, Final residual = 9.9295e-09, No Iterations 3
Phase-1 volume fraction = 0.123449  Min(alpha.water) = -1.24131e-13  Max(alpha.water) = 1
MULES: Correcting alpha.water
MULES: Correcting alpha.water
Phase-1 volume fraction = 0.12345  Min(alpha.water) = -9.28034e-07  Max(alpha.water) = 1
DICPCG:  Solving for p_rgh, Initial residual = 0.0148483, Final residual = 0.000733086, No Iterations 3
time step continuity errors : sum local = 0.000187965, global = 2.39953e-06, cumulative = 0.000566531
DICPCG:  Solving for p_rgh, Initial residual = 0.000926023, Final residual = 3.55169e-05, No Iterations 9
time step continuity errors : sum local = 9.10043e-06, global = -9.86212e-08, cumulative = 0.000566433
DICPCG:  Solving for p_rgh, Initial residual = 0.000181225, Final residual = 8.62791e-08, No Iterations 63
time step continuity errors : sum local = 2.21077e-08, global = 8.20931e-10, cumulative = 0.000566434
ExecutionTime = 3.1 s  ClockTime = 3 s

Courant Number mean: 0.066145 max: 1.00243
Interface Courant Number mean: 0.0124215 max: 0.641181
deltaT = 0.000901314
Time = 0.390987

smoothSolver:  Solving for alpha.water, Initial residual = 0.00251673, Final residual = 8.42598e-09, No Iterations 3
Phase-1 volume fraction = 0.12344  Min(alpha.water) = -1.13535e-13  Max(alpha.water) = 1
MULES: Correcting alpha.water
MULES: Correcting alpha.water
Phase-1 volume fraction = 0.123441  Min(alpha.water) = -1.33516e-06  Max(alpha.water) = 1
DICPCG:  Solving for p_rgh, Initial residual = 0.0139196, Final residual = 0.00066317, No Iterations 3
time step continuity errors : sum local = 0.000143281, global = 3.4181e-06, cumulative = 0.000569852
DICPCG:  Solving for p_rgh, Initial residual = 0.000894652, Final residual = 4.27277e-05, No Iterations 8
time step continuity errors : sum local = 9.23133e-06, global = 6.93875e-07, cumulative = 0.000570546
DICPCG:  Solving for p_rgh, Initial residual = 0.000161464, Final residual = 9.42511e-08, No Iterations 63
time step continuity errors : sum local = 2.03616e-08, global = 7.13161e-10, cumulative = 0.000570546
ExecutionTime = 3.1 s  ClockTime = 3 s

Courant Number mean: 0.0599177 max: 0.9395
Interface Courant Number mean: 0.0115381 max: 0.615107
deltaT = 0.000901314
Time = 0.391888

smoothSolver:  Solving for alpha.water, Initial residual = 0.00252056, Final residual = 2.66742e-10, No Iterations 4
Phase-1 volume fraction = 0.123431  Min(alpha.water) = -1.03927e-13  Max(alpha.water) = 1
MULES: Correcting alpha.water
MULES: Correcting alpha.water
Phase-1 volume fraction = 0.123432  Min(alpha.water) = -3.45736e-07  Max(alpha.water) = 1
DICPCG:  Solving for p_rgh, Initial residual = 0.0141782, Final residual = 0.000551433, No Iterations 3
time step continuity errors : sum local = 0.000119684, global = 2.89418e-06, cumulative = 0.000573441
DICPCG:  Solving for p_rgh, Initial residual = 0.000807541, Final residual = 2.98688e-05, No Iterations 9
time step continuity errors : sum local = 6.48808e-06, global = -3.83204e-07, cumulative = 0.000573057
DICPCG:  Solving for p_rgh, Initial residual = 0.000153231, Final residual = 9.63597e-08, No Iterations 59
time step continuity errors : sum local = 2.0928e-08, global = -1.4244e-09, cumulative = 0.000573056
ExecutionTime = 3.12 s  ClockTime = 3 s

Courant Number mean: 0.0596516 max: 0.971615
Interface Courant Number mean: 0.011453 max: 0.612657
deltaT = 0.000901314
Time = 0.392789

smoothSolver:  Solving for alpha.water, Initial residual = 0.00255374, Final residual = 3.27687e-10, No Iterations 4
Phase-1 volume fraction = 0.123422  Min(alpha.water) = -9.52105e-14  Max(alpha.water) = 1
MULES: Correcting alpha.water
MULES: Correcting alpha.water
Phase-1 volume fraction = 0.123422  Min(alpha.water) = -4.06652e-07  Max(alpha.water) = 1
DICPCG:  Solving for p_rgh, Initial residual = 0.0145703, Final residual = 0.000346702, No Iterations 3
time step continuity errors : sum local = 7.53133e-05, global = 3.16975e-06, cumulative = 0.000576226
DICPCG:  Solving for p_rgh, Initial residual = 0.000621449, Final residual = 2.90238e-05, No Iterations 9
time step continuity errors : sum local = 6.31161e-06, global = -3.40315e-07, cumulative = 0.000575885
DICPCG:  Solving for p_rgh, Initial residual = 0.000147442, Final residual = 7.03865e-08, No Iterations 61
time step continuity errors : sum local = 1.53009e-08, global = 6.45547e-11, cumulative = 0.000575885
ExecutionTime = 3.13 s  ClockTime = 3 s

Courant Number mean: 0.059483 max: 0.983953
Interface Courant Number mean: 0.0113065 max: 0.597479
deltaT = 0.000901314
Time = 0.393691

smoothSolver:  Solving for alpha.water, Initial residual = 0.00257897, Final residual = 4.21838e-10, No Iterations 4
Phase-1 volume fraction = 0.123413  Min(alpha.water) = -8.73006e-14  Max(alpha.water) = 1
MULES: Correcting alpha.water
MULES: Correcting alpha.water
Phase-1 volume fraction = 0.123413  Min(alpha.water) = -4.87343e-07  Max(alpha.water) = 1
DICPCG:  Solving for p_rgh, Initial residual = 0.0148399, Final residual = 0.000707819, No Iterations 2
time step continuity errors : sum local = 0.000153308, global = 3.81174e-06, cumulative = 0.000579697
DICPCG:  Solving for p_rgh, Initial residual = 0.000980225, Final residual = 4.05033e-05, No Iterations 9
time step continuity errors : sum local = 8.78195e-06, global = -9.10369e-07, cumulative = 0.000578787
DICPCG:  Solving for p_rgh, Initial residual = 0.000165987, Final residual = 8.01537e-08, No Iterations 63
time step continuity errors : sum local = 1.73684e-08, global = -2.75475e-10, cumulative = 0.000578786
ExecutionTime = 3.15 s  ClockTime = 3 s

Courant Number mean: 0.0592412 max: 0.962144
Interface Courant Number mean: 0.0111731 max: 0.594168
deltaT = 0.000901314
Time = 0.394592

smoothSolver:  Solving for alpha.water, Initial residual = 0.00256392, Final residual = 5.7085e-10, No Iterations 4
Phase-1 volume fraction = 0.123403  Min(alpha.water) = -8.01185e-14  Max(alpha.water) = 1
MULES: Correcting alpha.water
MULES: Correcting alpha.water
Phase-1 volume fraction = 0.123403  Min(alpha.water) = -8.11802e-07  Max(alpha.water) = 1
DICPCG:  Solving for p_rgh, Initial residual = 0.0151531, Final residual = 0.000643203, No Iterations 2
time step continuity errors : sum local = 0.000139631, global = 5.15855e-06, cumulative = 0.000583945
DICPCG:  Solving for p_rgh, Initial residual = 0.00100592, Final residual = 4.21692e-05, No Iterations 9
time step continuity errors : sum local = 9.15412e-06, global = -9.43012e-07, cumulative = 0.000583002
DICPCG:  Solving for p_rgh, Initial residual = 0.00018474, Final residual = 6.88877e-08, No Iterations 63
time step continuity errors : sum local = 1.49396e-08, global = 8.24136e-11, cumulative = 0.000583002
ExecutionTime = 3.17 s  ClockTime = 3 s

Courant Number mean: 0.0589764 max: 1.00791
Interface Courant Number mean: 0.0109592 max: 0.577863
deltaT = 0.000772555
Time = 0.395365

smoothSolver:  Solving for alpha.water, Initial residual = 0.00221209, Final residual = 7.31372e-09, No Iterations 3
Phase-1 volume fraction = 0.123394  Min(alpha.water) = -7.44569e-14  Max(alpha.water) = 1
MULES: Correcting alpha.water
MULES: Correcting alpha.water
Phase-1 volume fraction = 0.123394  Min(alpha.water) = -9.57763e-07  Max(alpha.water) = 1
DICPCG:  Solving for p_rgh, Initial residual = 0.0133418, Final residual = 0.000554097, No Iterations 2
time step continuity errors : sum local = 8.99266e-05, global = 3.59381e-06, cumulative = 0.000586596
DICPCG:  Solving for p_rgh, Initial residual = 0.000849754, Final residual = 3.56072e-05, No Iterations 8
time step continuity errors : sum local = 5.77445e-06, global = 3.39566e-07, cumulative = 0.000586935
DICPCG:  Solving for p_rgh, Initial residual = 0.000149378, Final residual = 8.90081e-08, No Iterations 63
time step continuity errors : sum local = 1.44223e-08, global = -1.55289e-12, cumulative = 0.000586935
ExecutionTime = 3.18 s  ClockTime = 3 s

Courant Number mean: 0.050357 max: 0.880743
Interface Courant Number mean: 0.00929995 max: 0.504602
deltaT = 0.000772555
Time = 0.396137

smoothSolver:  Solving for alpha.water, Initial residual = 0.00221658, Final residual = 6.89771e-09, No Iterations 3
Phase-1 volume fraction = 0.123385  Min(alpha.water) = -6.92398e-14  Max(alpha.water) = 1
MULES: Correcting alpha.water
MULES: Correcting alpha.water
Phase-1 volume fraction = 0.123385  Min(alpha.water) = -1.2672e-07  Max(alpha.water) = 1
DICPCG:  Solving for p_rgh, Initial residual = 0.0121105, Final residual = 0.000336981, No Iterations 3
time step continuity errors : sum local = 5.33844e-05, global = 2.23733e-06, cumulative = 0.000589173
DICPCG:  Solving for p_rgh, Initial residual = 0.000644236, Final residual = 2.18454e-05, No Iterations 9
time step continuity errors : sum local = 3.45394e-06, global = 1.11735e-07, cumulative = 0.000589285
DICPCG:  Solving for p_rgh, Initial residual = 0.000129876, Final residual = 9.71493e-08, No Iterations 62
time step continuity errors : sum local = 1.53475e-08, global = -1.04721e-10, cumulative = 0.000589284
ExecutionTime = 3.2 s  ClockTime = 3 s

Courant Number mean: 0.0502631 max: 0.882979
Interface Courant Number mean: 0.00950018 max: 0.535649
deltaT = 0.000772555
Time = 0.39691

smoothSolver:  Solving for alpha.water, Initial residual = 0.00220164, Final residual = 6.63387e-09, No Iterations 3
Phase-1 volume fraction = 0.123376  Min(alpha.water) = -6.44302e-14  Max(alpha.water) = 1
MULES: Correcting alpha.water
MULES: Correcting alpha.water
Phase-1 volume fraction = 0.123376  Min(alpha.water) = -1.45358e-07  Max(alpha.water) = 1
DICPCG:  Solving for p_rgh, Initial residual = 0.0119005, Final residual = 0.000306948, No Iterations 3
time step continuity errors : sum local = 4.77487e-05, global = 1.33187e-06, cumulative = 0.000590616
DICPCG:  Solving for p_rgh, Initial residual = 0.000678161, Final residual = 2.87134e-05, No Iterations 9
time step continuity errors : sum local = 4.45519e-06, global = 1.81125e-08, cumulative = 0.000590634
DICPCG:  Solving for p_rgh, Initial residual = 0.000160023, Final residual = 7.3197e-08, No Iterations 62
time step continuity errors : sum local = 1.13494e-08, global = -8.11271e-10, cumulative = 0.000590634
ExecutionTime = 3.23 s  ClockTime = 3 s

Courant Number mean: 0.0501663 max: 0.872837
Interface Courant Number mean: 0.00965349 max: 0.55634
deltaT = 0.000772555
Time = 0.397682

smoothSolver:  Solving for alpha.water, Initial residual = 0.00216026, Final residual = 6.33449e-09, No Iterations 3
Phase-1 volume fraction = 0.123367  Min(alpha.water) = -5.99944e-14  Max(alpha.water) = 1
MULES: Correcting alpha.water
MULES: Correcting alpha.water
Phase-1 volume fraction = 0.123367  Min(alpha.water) = -1.92246e-07  Max(alpha.water) = 1
DICPCG:  Solving for p_rgh, Initial residual = 0.0120226, Final residual = 0.000310362, No Iterations 3
time step continuity errors : sum local = 4.75701e-05, global = 1.49733e-06, cumulative = 0.000592131
DICPCG:  Solving for p_rgh, Initial residual = 0.00067218, Final residual = 2.41199e-05, No Iterations 9
time step continuity errors : sum local = 3.69106e-06, global = -1.86588e-07, cumulative = 0.000591944
DICPCG:  Solving for p_rgh, Initial residual = 0.00015539, Final residual = 5.32028e-08, No Iterations 63
time step continuity errors : sum local = 8.13706e-09, global = -1.53455e-11, cumulative = 0.000591944
ExecutionTime = 3.23 s  ClockTime = 3 s

Courant Number mean: 0.0500101 max: 0.898671
Interface Courant Number mean: 0.00968276 max: 0.560142
deltaT = 0.000772555
Time = 0.398455

smoothSolver:  Solving for alpha.water, Initial residual = 0.00217429, Final residual = 6.03119e-09, No Iterations 3
Phase-1 volume fraction = 0.123358  Min(alpha.water) = -5.61195e-14  Max(alpha.water) = 1
MULES: Correcting alpha.water
MULES: Correcting alpha.water
Phase-1 volume fraction = 0.123358  Min(alpha.water) = -3.19634e-07  Max(alpha.water) = 1
DICPCG:  Solving for p_rgh, Initial residual = 0.0119922, Final residual = 0.000597017, No Iterations 2
time step continuity errors : sum local = 9.05688e-05, global = 3.59529e-06, cumulative = 0.00059554
DICPCG:  Solving for p_rgh, Initial residual = 0.000893542, Final residual = 2.92252e-05, No Iterations 9
time step continuity errors : sum local = 4.42778e-06, global = 1.77516e-08, cumulative = 0.000595557
DICPCG:  Solving for p_rgh, Initial residual = 0.000155273, Final residual = 7.91369e-08, No Iterations 63
time step continuity errors : sum local = 1.19828e-08, global = 2.66336e-10, cumulative = 0.000595558
ExecutionTime = 3.26 s  ClockTime = 3 s

Courant Number mean: 0.0498061 max: 0.927311
Interface Courant Number mean: 0.00970623 max: 0.554699
deltaT = 0.000772555
Time = 0.399227

smoothSolver:  Solving for alpha.water, Initial residual = 0.00216754, Final residual = 5.69382e-09, No Iterations 3
Phase-1 volume fraction = 0.123349  Min(alpha.water) = -5.49027e-14  Max(alpha.water) = 1
MULES: Correcting alpha.water
MULES: Correcting alpha.water
Phase-1 volume fraction = 0.123349  Min(alpha.water) = -9.29917e-07  Max(alpha.water) = 1
DICPCG:  Solving for p_rgh, Initial residual = 0.0125275, Final residual = 0.000558049, No Iterations 2
time step continuity errors : sum local = 8.43833e-05, global = 3.68157e-06, cumulative = 0.000599239
DICPCG:  Solving for p_rgh, Initial residual = 0.000881559, Final residual = 3.8895e-05, No Iterations 9
time step continuity errors : sum local = 5.8746e-06, global = -8.15511e-07, cumulative = 0.000598424
DICPCG:  Solving for p_rgh, Initial residual = 0.000165924, Final residual = 7.44776e-08, No Iterations 63
time step continuity errors : sum local = 1.12427e-08, global = 6.79217e-10, cumulative = 0.000598424
ExecutionTime = 3.27 s  ClockTime = 3 s

Courant Number mean: 0.0496257 max: 0.951013
Interface Courant Number mean: 0.00962813 max: 0.545334
deltaT = 0.000772555
Time = 0.4

smoothSolver:  Solving for alpha.water, Initial residual = 0.00214944, Final residual = 5.32538e-09, No Iterations 3
Phase-1 volume fraction = 0.123339  Min(alpha.water) = -5.35586e-14  Max(alpha.water) = 1
MULES: Correcting alpha.water
MULES: Correcting alpha.water
Phase-1 volume fraction = 0.12334  Min(alpha.water) = -1.72932e-06  Max(alpha.water) = 1
DICPCG:  Solving for p_rgh, Initial residual = 0.0126641, Final residual = 0.00055366, No Iterations 2
time step continuity errors : sum local = 8.30089e-05, global = 5.35283e-06, cumulative = 0.000603777
DICPCG:  Solving for p_rgh, Initial residual = 0.000836534, Final residual = 3.20223e-05, No Iterations 9
time step continuity errors : sum local = 4.7965e-06, global = 1.05931e-06, cumulative = 0.000604836
DICPCG:  Solving for p_rgh, Initial residual = 0.000150282, Final residual = 8.24441e-08, No Iterations 43
time step continuity errors : sum local = 1.23396e-08, global = -6.18505e-11, cumulative = 0.000604836
ExecutionTime = 3.28 s  ClockTime = 3 s

End

